
---------- Begin Simulation Statistics ----------
simSeconds                                   0.101530                       # Number of seconds simulated (Second)
simTicks                                 101530057751                       # Number of ticks simulated (Tick)
finalTick                                160820810563251                       # Number of ticks from beginning of simulation (restored from checkpoints and never reset) (Tick)
simFreq                                  1000000000000                       # The number of ticks per simulated second ((Tick/Second))
hostSeconds                                    344.26                       # Real time elapsed on the host (Second)
hostTickRate                                294919663                       # The number of ticks simulated per host second (ticks/s) ((Tick/Second))
hostMemory                                    7366956                       # Number of bytes of host memory used (Byte)
simInsts                                  38449392612                       # Number of instructions simulated (Count)
simOps                                    38507955618                       # Number of ops (including micro ops) simulated (Count)
hostInstRate                                111685920                       # Simulator instruction rate (inst/s) ((Count/Second))
hostOpRate                                  111856028                       # Simulator op (including micro ops) rate (op/s) ((Count/Second))
system.work_item_type0::samples                     1                       # Run time stat forwork_item_type0 (Unspecified)
system.work_item_type0::mean             101530057751                       # Run time stat forwork_item_type0 (Unspecified)
system.work_item_type0::gmean            101530057750.999893                       # Run time stat forwork_item_type0 (Unspecified)
system.work_item_type0::stdev                     nan                       # Run time stat forwork_item_type0 (Unspecified)
system.work_item_type0::0-8.58993e+09               0      0.00%      0.00% # Run time stat forwork_item_type0 (Unspecified)
system.work_item_type0::8.58993e+09-1.71799e+10            0      0.00%      0.00% # Run time stat forwork_item_type0 (Unspecified)
system.work_item_type0::1.71799e+10-2.57698e+10            0      0.00%      0.00% # Run time stat forwork_item_type0 (Unspecified)
system.work_item_type0::2.57698e+10-3.43597e+10            0      0.00%      0.00% # Run time stat forwork_item_type0 (Unspecified)
system.work_item_type0::3.43597e+10-4.29497e+10            0      0.00%      0.00% # Run time stat forwork_item_type0 (Unspecified)
system.work_item_type0::4.29497e+10-5.15396e+10            0      0.00%      0.00% # Run time stat forwork_item_type0 (Unspecified)
system.work_item_type0::5.15396e+10-6.01295e+10            0      0.00%      0.00% # Run time stat forwork_item_type0 (Unspecified)
system.work_item_type0::6.01295e+10-6.87195e+10            0      0.00%      0.00% # Run time stat forwork_item_type0 (Unspecified)
system.work_item_type0::6.87195e+10-7.73094e+10            0      0.00%      0.00% # Run time stat forwork_item_type0 (Unspecified)
system.work_item_type0::7.73094e+10-8.58993e+10            0      0.00%      0.00% # Run time stat forwork_item_type0 (Unspecified)
system.work_item_type0::8.58993e+10-9.44893e+10            0      0.00%      0.00% # Run time stat forwork_item_type0 (Unspecified)
system.work_item_type0::9.44893e+10-1.03079e+11            1    100.00%    100.00% # Run time stat forwork_item_type0 (Unspecified)
system.work_item_type0::1.03079e+11-1.11669e+11            0      0.00%    100.00% # Run time stat forwork_item_type0 (Unspecified)
system.work_item_type0::1.11669e+11-1.20259e+11            0      0.00%    100.00% # Run time stat forwork_item_type0 (Unspecified)
system.work_item_type0::1.20259e+11-1.28849e+11            0      0.00%    100.00% # Run time stat forwork_item_type0 (Unspecified)
system.work_item_type0::1.28849e+11-1.37439e+11            0      0.00%    100.00% # Run time stat forwork_item_type0 (Unspecified)
system.work_item_type0::1.37439e+11-1.46029e+11            0      0.00%    100.00% # Run time stat forwork_item_type0 (Unspecified)
system.work_item_type0::1.46029e+11-1.54619e+11            0      0.00%    100.00% # Run time stat forwork_item_type0 (Unspecified)
system.work_item_type0::1.54619e+11-1.63209e+11            0      0.00%    100.00% # Run time stat forwork_item_type0 (Unspecified)
system.work_item_type0::1.63209e+11-1.71799e+11            0      0.00%    100.00% # Run time stat forwork_item_type0 (Unspecified)
system.work_item_type0::total                       1                       # Run time stat forwork_item_type0 (Unspecified)
system.atomicCpu0.numCycles                         0                       # Number of cpu cycles simulated (Cycle)
system.atomicCpu0.numWorkItemsStarted               0                       # Number of work items this cpu started (Count)
system.atomicCpu0.numWorkItemsCompleted             0                       # Number of work items this cpu completed (Count)
system.atomicCpu0.exec_context.thread_0.numInsts            0                       # Number of instructions committed (Count)
system.atomicCpu0.exec_context.thread_0.numOps            0                       # Number of ops (including micro ops) committed (Count)
system.atomicCpu0.exec_context.thread_0.numIntAluAccesses            0                       # Number of integer alu accesses (Count)
system.atomicCpu0.exec_context.thread_0.numFpAluAccesses            0                       # Number of float alu accesses (Count)
system.atomicCpu0.exec_context.thread_0.numVecAluAccesses            0                       # Number of vector alu accesses (Count)
system.atomicCpu0.exec_context.thread_0.numCallsReturns            0                       # Number of times a function call or return occured (Count)
system.atomicCpu0.exec_context.thread_0.numCondCtrlInsts            0                       # Number of instructions that are conditional controls (Count)
system.atomicCpu0.exec_context.thread_0.numIntInsts            0                       # Number of integer instructions (Count)
system.atomicCpu0.exec_context.thread_0.numFpInsts            0                       # Number of float instructions (Count)
system.atomicCpu0.exec_context.thread_0.numVecInsts            0                       # Number of vector instructions (Count)
system.atomicCpu0.exec_context.thread_0.numIntRegReads            0                       # Number of times the integer registers were read (Count)
system.atomicCpu0.exec_context.thread_0.numIntRegWrites            0                       # Number of times the integer registers were written (Count)
system.atomicCpu0.exec_context.thread_0.numFpRegReads            0                       # Number of times the floating registers were read (Count)
system.atomicCpu0.exec_context.thread_0.numFpRegWrites            0                       # Number of times the floating registers were written (Count)
system.atomicCpu0.exec_context.thread_0.numVecRegReads            0                       # Number of times the vector registers were read (Count)
system.atomicCpu0.exec_context.thread_0.numVecRegWrites            0                       # Number of times the vector registers were written (Count)
system.atomicCpu0.exec_context.thread_0.numVecPredRegReads            0                       # Number of times the predicate registers were read (Count)
system.atomicCpu0.exec_context.thread_0.numVecPredRegWrites            0                       # Number of times the predicate registers were written (Count)
system.atomicCpu0.exec_context.thread_0.numMiscRegReads            0                       # Number of times the Misc registers were read (Count)
system.atomicCpu0.exec_context.thread_0.numMiscRegWrites            0                       # Number of times the Misc registers were written (Count)
system.atomicCpu0.exec_context.thread_0.numMemRefs            0                       # Number of memory refs (Count)
system.atomicCpu0.exec_context.thread_0.numLoadInsts            0                       # Number of load instructions (Count)
system.atomicCpu0.exec_context.thread_0.numStoreInsts            0                       # Number of store instructions (Count)
system.atomicCpu0.exec_context.thread_0.numIdleCycles            0                       # Number of idle cycles (Cycle)
system.atomicCpu0.exec_context.thread_0.numBusyCycles            0                       # Number of busy cycles (Cycle)
system.atomicCpu0.exec_context.thread_0.notIdleFraction            0                       # Percentage of non-idle cycles (Ratio)
system.atomicCpu0.exec_context.thread_0.idleFraction            1                       # Percentage of idle cycles (Ratio)
system.atomicCpu0.exec_context.thread_0.statExecutedInstType::No_OpClass            0                       # Class of executed instruction. (Count)
system.atomicCpu0.exec_context.thread_0.statExecutedInstType::IntAlu            0                       # Class of executed instruction. (Count)
system.atomicCpu0.exec_context.thread_0.statExecutedInstType::IntMult            0                       # Class of executed instruction. (Count)
system.atomicCpu0.exec_context.thread_0.statExecutedInstType::IntDiv            0                       # Class of executed instruction. (Count)
system.atomicCpu0.exec_context.thread_0.statExecutedInstType::FloatAdd            0                       # Class of executed instruction. (Count)
system.atomicCpu0.exec_context.thread_0.statExecutedInstType::FloatCmp            0                       # Class of executed instruction. (Count)
system.atomicCpu0.exec_context.thread_0.statExecutedInstType::FloatCvt            0                       # Class of executed instruction. (Count)
system.atomicCpu0.exec_context.thread_0.statExecutedInstType::FloatMult            0                       # Class of executed instruction. (Count)
system.atomicCpu0.exec_context.thread_0.statExecutedInstType::FloatMultAcc            0                       # Class of executed instruction. (Count)
system.atomicCpu0.exec_context.thread_0.statExecutedInstType::FloatDiv            0                       # Class of executed instruction. (Count)
system.atomicCpu0.exec_context.thread_0.statExecutedInstType::FloatMisc            0                       # Class of executed instruction. (Count)
system.atomicCpu0.exec_context.thread_0.statExecutedInstType::FloatSqrt            0                       # Class of executed instruction. (Count)
system.atomicCpu0.exec_context.thread_0.statExecutedInstType::SimdAdd            0                       # Class of executed instruction. (Count)
system.atomicCpu0.exec_context.thread_0.statExecutedInstType::SimdAddAcc            0                       # Class of executed instruction. (Count)
system.atomicCpu0.exec_context.thread_0.statExecutedInstType::SimdAlu            0                       # Class of executed instruction. (Count)
system.atomicCpu0.exec_context.thread_0.statExecutedInstType::SimdCmp            0                       # Class of executed instruction. (Count)
system.atomicCpu0.exec_context.thread_0.statExecutedInstType::SimdCvt            0                       # Class of executed instruction. (Count)
system.atomicCpu0.exec_context.thread_0.statExecutedInstType::SimdMisc            0                       # Class of executed instruction. (Count)
system.atomicCpu0.exec_context.thread_0.statExecutedInstType::SimdMult            0                       # Class of executed instruction. (Count)
system.atomicCpu0.exec_context.thread_0.statExecutedInstType::SimdMultAcc            0                       # Class of executed instruction. (Count)
system.atomicCpu0.exec_context.thread_0.statExecutedInstType::SimdShift            0                       # Class of executed instruction. (Count)
system.atomicCpu0.exec_context.thread_0.statExecutedInstType::SimdShiftAcc            0                       # Class of executed instruction. (Count)
system.atomicCpu0.exec_context.thread_0.statExecutedInstType::SimdDiv            0                       # Class of executed instruction. (Count)
system.atomicCpu0.exec_context.thread_0.statExecutedInstType::SimdSqrt            0                       # Class of executed instruction. (Count)
system.atomicCpu0.exec_context.thread_0.statExecutedInstType::SimdFloatAdd            0                       # Class of executed instruction. (Count)
system.atomicCpu0.exec_context.thread_0.statExecutedInstType::SimdFloatAlu            0                       # Class of executed instruction. (Count)
system.atomicCpu0.exec_context.thread_0.statExecutedInstType::SimdFloatCmp            0                       # Class of executed instruction. (Count)
system.atomicCpu0.exec_context.thread_0.statExecutedInstType::SimdFloatCvt            0                       # Class of executed instruction. (Count)
system.atomicCpu0.exec_context.thread_0.statExecutedInstType::SimdFloatDiv            0                       # Class of executed instruction. (Count)
system.atomicCpu0.exec_context.thread_0.statExecutedInstType::SimdFloatMisc            0                       # Class of executed instruction. (Count)
system.atomicCpu0.exec_context.thread_0.statExecutedInstType::SimdFloatMult            0                       # Class of executed instruction. (Count)
system.atomicCpu0.exec_context.thread_0.statExecutedInstType::SimdFloatMultAcc            0                       # Class of executed instruction. (Count)
system.atomicCpu0.exec_context.thread_0.statExecutedInstType::SimdFloatSqrt            0                       # Class of executed instruction. (Count)
system.atomicCpu0.exec_context.thread_0.statExecutedInstType::SimdReduceAdd            0                       # Class of executed instruction. (Count)
system.atomicCpu0.exec_context.thread_0.statExecutedInstType::SimdReduceAlu            0                       # Class of executed instruction. (Count)
system.atomicCpu0.exec_context.thread_0.statExecutedInstType::SimdReduceCmp            0                       # Class of executed instruction. (Count)
system.atomicCpu0.exec_context.thread_0.statExecutedInstType::SimdFloatReduceAdd            0                       # Class of executed instruction. (Count)
system.atomicCpu0.exec_context.thread_0.statExecutedInstType::SimdFloatReduceCmp            0                       # Class of executed instruction. (Count)
system.atomicCpu0.exec_context.thread_0.statExecutedInstType::SimdAes            0                       # Class of executed instruction. (Count)
system.atomicCpu0.exec_context.thread_0.statExecutedInstType::SimdAesMix            0                       # Class of executed instruction. (Count)
system.atomicCpu0.exec_context.thread_0.statExecutedInstType::SimdSha1Hash            0                       # Class of executed instruction. (Count)
system.atomicCpu0.exec_context.thread_0.statExecutedInstType::SimdSha1Hash2            0                       # Class of executed instruction. (Count)
system.atomicCpu0.exec_context.thread_0.statExecutedInstType::SimdSha256Hash            0                       # Class of executed instruction. (Count)
system.atomicCpu0.exec_context.thread_0.statExecutedInstType::SimdSha256Hash2            0                       # Class of executed instruction. (Count)
system.atomicCpu0.exec_context.thread_0.statExecutedInstType::SimdShaSigma2            0                       # Class of executed instruction. (Count)
system.atomicCpu0.exec_context.thread_0.statExecutedInstType::SimdShaSigma3            0                       # Class of executed instruction. (Count)
system.atomicCpu0.exec_context.thread_0.statExecutedInstType::SimdPredAlu            0                       # Class of executed instruction. (Count)
system.atomicCpu0.exec_context.thread_0.statExecutedInstType::MemRead            0                       # Class of executed instruction. (Count)
system.atomicCpu0.exec_context.thread_0.statExecutedInstType::MemWrite            0                       # Class of executed instruction. (Count)
system.atomicCpu0.exec_context.thread_0.statExecutedInstType::FloatMemRead            0                       # Class of executed instruction. (Count)
system.atomicCpu0.exec_context.thread_0.statExecutedInstType::FloatMemWrite            0                       # Class of executed instruction. (Count)
system.atomicCpu0.exec_context.thread_0.statExecutedInstType::IprAccess            0                       # Class of executed instruction. (Count)
system.atomicCpu0.exec_context.thread_0.statExecutedInstType::InstPrefetch            0                       # Class of executed instruction. (Count)
system.atomicCpu0.exec_context.thread_0.statExecutedInstType::total            0                       # Class of executed instruction. (Count)
system.atomicCpu0.mmu.dtb.rdAccesses                0                       # TLB accesses on read requests (Count)
system.atomicCpu0.mmu.dtb.wrAccesses                0                       # TLB accesses on write requests (Count)
system.atomicCpu0.mmu.dtb.rdMisses                  0                       # TLB misses on read requests (Count)
system.atomicCpu0.mmu.dtb.wrMisses                  0                       # TLB misses on write requests (Count)
system.atomicCpu0.mmu.dtb.walker.power_state.pwrStateResidencyTicks::UNDEFINED 160820810563251                       # Cumulative time (in ticks) in various power states (Tick)
system.atomicCpu0.mmu.itb.rdAccesses                0                       # TLB accesses on read requests (Count)
system.atomicCpu0.mmu.itb.wrAccesses                0                       # TLB accesses on write requests (Count)
system.atomicCpu0.mmu.itb.rdMisses                  0                       # TLB misses on read requests (Count)
system.atomicCpu0.mmu.itb.wrMisses                  0                       # TLB misses on write requests (Count)
system.atomicCpu0.mmu.itb.walker.power_state.pwrStateResidencyTicks::UNDEFINED 160820810563251                       # Cumulative time (in ticks) in various power states (Tick)
system.atomicCpu0.power_state.pwrStateResidencyTicks::OFF 160820810563251                       # Cumulative time (in ticks) in various power states (Tick)
system.atomicCpu0.thread_0.numInsts                 0                       # Number of Instructions committed (Count)
system.atomicCpu0.thread_0.numOps                   0                       # Number of Ops committed (Count)
system.atomicCpu0.thread_0.numMemRefs               0                       # Number of Memory References (Count)
system.atomicCpu1.numCycles                         0                       # Number of cpu cycles simulated (Cycle)
system.atomicCpu1.numWorkItemsStarted               0                       # Number of work items this cpu started (Count)
system.atomicCpu1.numWorkItemsCompleted             0                       # Number of work items this cpu completed (Count)
system.atomicCpu1.exec_context.thread_0.numInsts            0                       # Number of instructions committed (Count)
system.atomicCpu1.exec_context.thread_0.numOps            0                       # Number of ops (including micro ops) committed (Count)
system.atomicCpu1.exec_context.thread_0.numIntAluAccesses            0                       # Number of integer alu accesses (Count)
system.atomicCpu1.exec_context.thread_0.numFpAluAccesses            0                       # Number of float alu accesses (Count)
system.atomicCpu1.exec_context.thread_0.numVecAluAccesses            0                       # Number of vector alu accesses (Count)
system.atomicCpu1.exec_context.thread_0.numCallsReturns            0                       # Number of times a function call or return occured (Count)
system.atomicCpu1.exec_context.thread_0.numCondCtrlInsts            0                       # Number of instructions that are conditional controls (Count)
system.atomicCpu1.exec_context.thread_0.numIntInsts            0                       # Number of integer instructions (Count)
system.atomicCpu1.exec_context.thread_0.numFpInsts            0                       # Number of float instructions (Count)
system.atomicCpu1.exec_context.thread_0.numVecInsts            0                       # Number of vector instructions (Count)
system.atomicCpu1.exec_context.thread_0.numIntRegReads            0                       # Number of times the integer registers were read (Count)
system.atomicCpu1.exec_context.thread_0.numIntRegWrites            0                       # Number of times the integer registers were written (Count)
system.atomicCpu1.exec_context.thread_0.numFpRegReads            0                       # Number of times the floating registers were read (Count)
system.atomicCpu1.exec_context.thread_0.numFpRegWrites            0                       # Number of times the floating registers were written (Count)
system.atomicCpu1.exec_context.thread_0.numVecRegReads            0                       # Number of times the vector registers were read (Count)
system.atomicCpu1.exec_context.thread_0.numVecRegWrites            0                       # Number of times the vector registers were written (Count)
system.atomicCpu1.exec_context.thread_0.numVecPredRegReads            0                       # Number of times the predicate registers were read (Count)
system.atomicCpu1.exec_context.thread_0.numVecPredRegWrites            0                       # Number of times the predicate registers were written (Count)
system.atomicCpu1.exec_context.thread_0.numMiscRegReads            0                       # Number of times the Misc registers were read (Count)
system.atomicCpu1.exec_context.thread_0.numMiscRegWrites            0                       # Number of times the Misc registers were written (Count)
system.atomicCpu1.exec_context.thread_0.numMemRefs            0                       # Number of memory refs (Count)
system.atomicCpu1.exec_context.thread_0.numLoadInsts            0                       # Number of load instructions (Count)
system.atomicCpu1.exec_context.thread_0.numStoreInsts            0                       # Number of store instructions (Count)
system.atomicCpu1.exec_context.thread_0.numIdleCycles            0                       # Number of idle cycles (Cycle)
system.atomicCpu1.exec_context.thread_0.numBusyCycles            0                       # Number of busy cycles (Cycle)
system.atomicCpu1.exec_context.thread_0.notIdleFraction            0                       # Percentage of non-idle cycles (Ratio)
system.atomicCpu1.exec_context.thread_0.idleFraction            1                       # Percentage of idle cycles (Ratio)
system.atomicCpu1.exec_context.thread_0.statExecutedInstType::No_OpClass            0                       # Class of executed instruction. (Count)
system.atomicCpu1.exec_context.thread_0.statExecutedInstType::IntAlu            0                       # Class of executed instruction. (Count)
system.atomicCpu1.exec_context.thread_0.statExecutedInstType::IntMult            0                       # Class of executed instruction. (Count)
system.atomicCpu1.exec_context.thread_0.statExecutedInstType::IntDiv            0                       # Class of executed instruction. (Count)
system.atomicCpu1.exec_context.thread_0.statExecutedInstType::FloatAdd            0                       # Class of executed instruction. (Count)
system.atomicCpu1.exec_context.thread_0.statExecutedInstType::FloatCmp            0                       # Class of executed instruction. (Count)
system.atomicCpu1.exec_context.thread_0.statExecutedInstType::FloatCvt            0                       # Class of executed instruction. (Count)
system.atomicCpu1.exec_context.thread_0.statExecutedInstType::FloatMult            0                       # Class of executed instruction. (Count)
system.atomicCpu1.exec_context.thread_0.statExecutedInstType::FloatMultAcc            0                       # Class of executed instruction. (Count)
system.atomicCpu1.exec_context.thread_0.statExecutedInstType::FloatDiv            0                       # Class of executed instruction. (Count)
system.atomicCpu1.exec_context.thread_0.statExecutedInstType::FloatMisc            0                       # Class of executed instruction. (Count)
system.atomicCpu1.exec_context.thread_0.statExecutedInstType::FloatSqrt            0                       # Class of executed instruction. (Count)
system.atomicCpu1.exec_context.thread_0.statExecutedInstType::SimdAdd            0                       # Class of executed instruction. (Count)
system.atomicCpu1.exec_context.thread_0.statExecutedInstType::SimdAddAcc            0                       # Class of executed instruction. (Count)
system.atomicCpu1.exec_context.thread_0.statExecutedInstType::SimdAlu            0                       # Class of executed instruction. (Count)
system.atomicCpu1.exec_context.thread_0.statExecutedInstType::SimdCmp            0                       # Class of executed instruction. (Count)
system.atomicCpu1.exec_context.thread_0.statExecutedInstType::SimdCvt            0                       # Class of executed instruction. (Count)
system.atomicCpu1.exec_context.thread_0.statExecutedInstType::SimdMisc            0                       # Class of executed instruction. (Count)
system.atomicCpu1.exec_context.thread_0.statExecutedInstType::SimdMult            0                       # Class of executed instruction. (Count)
system.atomicCpu1.exec_context.thread_0.statExecutedInstType::SimdMultAcc            0                       # Class of executed instruction. (Count)
system.atomicCpu1.exec_context.thread_0.statExecutedInstType::SimdShift            0                       # Class of executed instruction. (Count)
system.atomicCpu1.exec_context.thread_0.statExecutedInstType::SimdShiftAcc            0                       # Class of executed instruction. (Count)
system.atomicCpu1.exec_context.thread_0.statExecutedInstType::SimdDiv            0                       # Class of executed instruction. (Count)
system.atomicCpu1.exec_context.thread_0.statExecutedInstType::SimdSqrt            0                       # Class of executed instruction. (Count)
system.atomicCpu1.exec_context.thread_0.statExecutedInstType::SimdFloatAdd            0                       # Class of executed instruction. (Count)
system.atomicCpu1.exec_context.thread_0.statExecutedInstType::SimdFloatAlu            0                       # Class of executed instruction. (Count)
system.atomicCpu1.exec_context.thread_0.statExecutedInstType::SimdFloatCmp            0                       # Class of executed instruction. (Count)
system.atomicCpu1.exec_context.thread_0.statExecutedInstType::SimdFloatCvt            0                       # Class of executed instruction. (Count)
system.atomicCpu1.exec_context.thread_0.statExecutedInstType::SimdFloatDiv            0                       # Class of executed instruction. (Count)
system.atomicCpu1.exec_context.thread_0.statExecutedInstType::SimdFloatMisc            0                       # Class of executed instruction. (Count)
system.atomicCpu1.exec_context.thread_0.statExecutedInstType::SimdFloatMult            0                       # Class of executed instruction. (Count)
system.atomicCpu1.exec_context.thread_0.statExecutedInstType::SimdFloatMultAcc            0                       # Class of executed instruction. (Count)
system.atomicCpu1.exec_context.thread_0.statExecutedInstType::SimdFloatSqrt            0                       # Class of executed instruction. (Count)
system.atomicCpu1.exec_context.thread_0.statExecutedInstType::SimdReduceAdd            0                       # Class of executed instruction. (Count)
system.atomicCpu1.exec_context.thread_0.statExecutedInstType::SimdReduceAlu            0                       # Class of executed instruction. (Count)
system.atomicCpu1.exec_context.thread_0.statExecutedInstType::SimdReduceCmp            0                       # Class of executed instruction. (Count)
system.atomicCpu1.exec_context.thread_0.statExecutedInstType::SimdFloatReduceAdd            0                       # Class of executed instruction. (Count)
system.atomicCpu1.exec_context.thread_0.statExecutedInstType::SimdFloatReduceCmp            0                       # Class of executed instruction. (Count)
system.atomicCpu1.exec_context.thread_0.statExecutedInstType::SimdAes            0                       # Class of executed instruction. (Count)
system.atomicCpu1.exec_context.thread_0.statExecutedInstType::SimdAesMix            0                       # Class of executed instruction. (Count)
system.atomicCpu1.exec_context.thread_0.statExecutedInstType::SimdSha1Hash            0                       # Class of executed instruction. (Count)
system.atomicCpu1.exec_context.thread_0.statExecutedInstType::SimdSha1Hash2            0                       # Class of executed instruction. (Count)
system.atomicCpu1.exec_context.thread_0.statExecutedInstType::SimdSha256Hash            0                       # Class of executed instruction. (Count)
system.atomicCpu1.exec_context.thread_0.statExecutedInstType::SimdSha256Hash2            0                       # Class of executed instruction. (Count)
system.atomicCpu1.exec_context.thread_0.statExecutedInstType::SimdShaSigma2            0                       # Class of executed instruction. (Count)
system.atomicCpu1.exec_context.thread_0.statExecutedInstType::SimdShaSigma3            0                       # Class of executed instruction. (Count)
system.atomicCpu1.exec_context.thread_0.statExecutedInstType::SimdPredAlu            0                       # Class of executed instruction. (Count)
system.atomicCpu1.exec_context.thread_0.statExecutedInstType::MemRead            0                       # Class of executed instruction. (Count)
system.atomicCpu1.exec_context.thread_0.statExecutedInstType::MemWrite            0                       # Class of executed instruction. (Count)
system.atomicCpu1.exec_context.thread_0.statExecutedInstType::FloatMemRead            0                       # Class of executed instruction. (Count)
system.atomicCpu1.exec_context.thread_0.statExecutedInstType::FloatMemWrite            0                       # Class of executed instruction. (Count)
system.atomicCpu1.exec_context.thread_0.statExecutedInstType::IprAccess            0                       # Class of executed instruction. (Count)
system.atomicCpu1.exec_context.thread_0.statExecutedInstType::InstPrefetch            0                       # Class of executed instruction. (Count)
system.atomicCpu1.exec_context.thread_0.statExecutedInstType::total            0                       # Class of executed instruction. (Count)
system.atomicCpu1.mmu.dtb.rdAccesses                0                       # TLB accesses on read requests (Count)
system.atomicCpu1.mmu.dtb.wrAccesses                0                       # TLB accesses on write requests (Count)
system.atomicCpu1.mmu.dtb.rdMisses                  0                       # TLB misses on read requests (Count)
system.atomicCpu1.mmu.dtb.wrMisses                  0                       # TLB misses on write requests (Count)
system.atomicCpu1.mmu.dtb.walker.power_state.pwrStateResidencyTicks::UNDEFINED 160820810563251                       # Cumulative time (in ticks) in various power states (Tick)
system.atomicCpu1.mmu.itb.rdAccesses                0                       # TLB accesses on read requests (Count)
system.atomicCpu1.mmu.itb.wrAccesses                0                       # TLB accesses on write requests (Count)
system.atomicCpu1.mmu.itb.rdMisses                  0                       # TLB misses on read requests (Count)
system.atomicCpu1.mmu.itb.wrMisses                  0                       # TLB misses on write requests (Count)
system.atomicCpu1.mmu.itb.walker.power_state.pwrStateResidencyTicks::UNDEFINED 160820810563251                       # Cumulative time (in ticks) in various power states (Tick)
system.atomicCpu1.power_state.pwrStateResidencyTicks::OFF 160820810563251                       # Cumulative time (in ticks) in various power states (Tick)
system.atomicCpu1.thread_0.numInsts                 0                       # Number of Instructions committed (Count)
system.atomicCpu1.thread_0.numOps                   0                       # Number of Ops committed (Count)
system.atomicCpu1.thread_0.numMemRefs               0                       # Number of Memory References (Count)
system.caches.delayHistogram::bucket_size           64                       # delay histogram for all message (Unspecified)
system.caches.delayHistogram::max_bucket          639                       # delay histogram for all message (Unspecified)
system.caches.delayHistogram::samples         8821104                       # delay histogram for all message (Unspecified)
system.caches.delayHistogram::mean           0.173499                       # delay histogram for all message (Unspecified)
system.caches.delayHistogram::stdev          1.184501                       # delay histogram for all message (Unspecified)
system.caches.delayHistogram             |     8821099    100.00%    100.00% |           1      0.00%    100.00% |           1      0.00%    100.00% |           0      0.00%    100.00% |           1      0.00%    100.00% |           1      0.00%    100.00% |           1      0.00%    100.00% |           0      0.00%    100.00% |           0      0.00%    100.00% |           0      0.00%    100.00% # delay histogram for all message (Unspecified)
system.caches.delayHistogram::total           8821104                       # delay histogram for all message (Unspecified)
system.caches.m_outstandReqHistSeqr::bucket_size            1                       (Unspecified)
system.caches.m_outstandReqHistSeqr::max_bucket            9                       (Unspecified)
system.caches.m_outstandReqHistSeqr::samples    134632520                       (Unspecified)
system.caches.m_outstandReqHistSeqr::mean     1.000005                       (Unspecified)
system.caches.m_outstandReqHistSeqr::gmean     1.000003                       (Unspecified)
system.caches.m_outstandReqHistSeqr::stdev     0.002239                       (Unspecified)
system.caches.m_outstandReqHistSeqr      |           0      0.00%      0.00% |   134631845    100.00%    100.00% |         675      0.00%    100.00% |           0      0.00%    100.00% |           0      0.00%    100.00% |           0      0.00%    100.00% |           0      0.00%    100.00% |           0      0.00%    100.00% |           0      0.00%    100.00% |           0      0.00%    100.00% (Unspecified)
system.caches.m_outstandReqHistSeqr::total    134632520                       (Unspecified)
system.caches.m_latencyHistSeqr::bucket_size          512                       (Unspecified)
system.caches.m_latencyHistSeqr::max_bucket         5119                       (Unspecified)
system.caches.m_latencyHistSeqr::samples    134632518                       (Unspecified)
system.caches.m_latencyHistSeqr::mean        4.999524                       (Unspecified)
system.caches.m_latencyHistSeqr::gmean       1.058381                       (Unspecified)
system.caches.m_latencyHistSeqr::stdev      48.071253                       (Unspecified)
system.caches.m_latencyHistSeqr          |   134330883     99.78%     99.78% |      277394      0.21%     99.98% |        4996      0.00%     99.99% |       17112      0.01%    100.00% |        2123      0.00%    100.00% |          10      0.00%    100.00% |           0      0.00%    100.00% |           0      0.00%    100.00% |           0      0.00%    100.00% |           0      0.00%    100.00% (Unspecified)
system.caches.m_latencyHistSeqr::total      134632518                       (Unspecified)
system.caches.m_hitLatencyHistSeqr::bucket_size            1                       (Unspecified)
system.caches.m_hitLatencyHistSeqr::max_bucket            9                       (Unspecified)
system.caches.m_hitLatencyHistSeqr::samples    133251787                       (Unspecified)
system.caches.m_hitLatencyHistSeqr::mean            1                       (Unspecified)
system.caches.m_hitLatencyHistSeqr::gmean            1                       (Unspecified)
system.caches.m_hitLatencyHistSeqr       |           0      0.00%      0.00% |   133251787    100.00%    100.00% |           0      0.00%    100.00% |           0      0.00%    100.00% |           0      0.00%    100.00% |           0      0.00%    100.00% |           0      0.00%    100.00% |           0      0.00%    100.00% |           0      0.00%    100.00% |           0      0.00%    100.00% (Unspecified)
system.caches.m_hitLatencyHistSeqr::total    133251787                       (Unspecified)
system.caches.m_missLatencyHistSeqr::bucket_size          512                       (Unspecified)
system.caches.m_missLatencyHistSeqr::max_bucket         5119                       (Unspecified)
system.caches.m_missLatencyHistSeqr::samples      1380731                       (Unspecified)
system.caches.m_missLatencyHistSeqr::mean   390.986149                       (Unspecified)
system.caches.m_missLatencyHistSeqr::gmean   252.811330                       (Unspecified)
system.caches.m_missLatencyHistSeqr::stdev   273.490147                       (Unspecified)
system.caches.m_missLatencyHistSeqr      |     1079096     78.15%     78.15% |      277394     20.09%     98.24% |        4996      0.36%     98.61% |       17112      1.24%     99.85% |        2123      0.15%    100.00% |          10      0.00%    100.00% |           0      0.00%    100.00% |           0      0.00%    100.00% |           0      0.00%    100.00% |           0      0.00%    100.00% (Unspecified)
system.caches.m_missLatencyHistSeqr::total      1380731                       (Unspecified)
system.caches.delayVCHist.vnet_0::bucket_size           64                       # delay histogram for vnet_0 (Unspecified)
system.caches.delayVCHist.vnet_0::max_bucket          639                       # delay histogram for vnet_0 (Unspecified)
system.caches.delayVCHist.vnet_0::samples      3885591                       # delay histogram for vnet_0 (Unspecified)
system.caches.delayVCHist.vnet_0::mean       0.393014                       # delay histogram for vnet_0 (Unspecified)
system.caches.delayVCHist.vnet_0::stdev      1.759120                       # delay histogram for vnet_0 (Unspecified)
system.caches.delayVCHist.vnet_0         |     3885586    100.00%    100.00% |           1      0.00%    100.00% |           1      0.00%    100.00% |           0      0.00%    100.00% |           1      0.00%    100.00% |           1      0.00%    100.00% |           1      0.00%    100.00% |           0      0.00%    100.00% |           0      0.00%    100.00% |           0      0.00%    100.00% # delay histogram for vnet_0 (Unspecified)
system.caches.delayVCHist.vnet_0::total       3885591                       # delay histogram for vnet_0 (Unspecified)
system.caches.delayVCHist.vnet_1::bucket_size            1                       # delay histogram for vnet_1 (Unspecified)
system.caches.delayVCHist.vnet_1::max_bucket            9                       # delay histogram for vnet_1 (Unspecified)
system.caches.delayVCHist.vnet_1::samples      4836902                       # delay histogram for vnet_1 (Unspecified)
system.caches.delayVCHist.vnet_1::mean       0.000693                       # delay histogram for vnet_1 (Unspecified)
system.caches.delayVCHist.vnet_1::stdev      0.060598                       # delay histogram for vnet_1 (Unspecified)
system.caches.delayVCHist.vnet_1         |     4836151     99.98%     99.98% |           0      0.00%     99.98% |         193      0.00%     99.99% |           0      0.00%     99.99% |         278      0.01%     99.99% |           0      0.00%     99.99% |         192      0.00%    100.00% |           0      0.00%    100.00% |          88      0.00%    100.00% |           0      0.00%    100.00% # delay histogram for vnet_1 (Unspecified)
system.caches.delayVCHist.vnet_1::total       4836902                       # delay histogram for vnet_1 (Unspecified)
system.caches.delayVCHist.vnet_2::bucket_size            1                       # delay histogram for vnet_2 (Unspecified)
system.caches.delayVCHist.vnet_2::max_bucket            9                       # delay histogram for vnet_2 (Unspecified)
system.caches.delayVCHist.vnet_2::samples        98611                       # delay histogram for vnet_2 (Unspecified)
system.caches.delayVCHist.vnet_2::mean       0.000081                       # delay histogram for vnet_2 (Unspecified)
system.caches.delayVCHist.vnet_2::stdev      0.012738                       # delay histogram for vnet_2 (Unspecified)
system.caches.delayVCHist.vnet_2         |       98607    100.00%    100.00% |           0      0.00%    100.00% |           4      0.00%    100.00% |           0      0.00%    100.00% |           0      0.00%    100.00% |           0      0.00%    100.00% |           0      0.00%    100.00% |           0      0.00%    100.00% |           0      0.00%    100.00% |           0      0.00%    100.00% # delay histogram for vnet_2 (Unspecified)
system.caches.delayVCHist.vnet_2::total         98611                       # delay histogram for vnet_2 (Unspecified)
system.caches.L1Cache_Controller.Load    |    10212564     49.69%     49.69% |    10338562     50.31%    100.00% (Unspecified)
system.caches.L1Cache_Controller.Load::total     20551126                       (Unspecified)
system.caches.L1Cache_Controller.Ifetch  |    54266164     49.40%     49.40% |    55593120     50.60%    100.00% (Unspecified)
system.caches.L1Cache_Controller.Ifetch::total    109859284                       (Unspecified)
system.caches.L1Cache_Controller.Store   |     2148711     50.89%     50.89% |     2073398     49.11%    100.00% (Unspecified)
system.caches.L1Cache_Controller.Store::total      4222109                       (Unspecified)
system.caches.L1Cache_Controller.Inv     |       12679     45.72%     45.72% |       15052     54.28%    100.00% (Unspecified)
system.caches.L1Cache_Controller.Inv::total        27731                       (Unspecified)
system.caches.L1Cache_Controller.L1_Replacement |      644333     49.82%     49.82% |      648868     50.18%    100.00% (Unspecified)
system.caches.L1Cache_Controller.L1_Replacement::total      1293201                       (Unspecified)
system.caches.L1Cache_Controller.Fwd_GETX |       28243     49.91%     49.91% |       28349     50.09%    100.00% (Unspecified)
system.caches.L1Cache_Controller.Fwd_GETX::total        56592                       (Unspecified)
system.caches.L1Cache_Controller.Fwd_GETS |        8291     58.03%     58.03% |        5997     41.97%    100.00% (Unspecified)
system.caches.L1Cache_Controller.Fwd_GETS::total        14288                       (Unspecified)
system.caches.L1Cache_Controller.Data    |         824     99.88%     99.88% |           1      0.12%    100.00% (Unspecified)
system.caches.L1Cache_Controller.Data::total          825                       (Unspecified)
system.caches.L1Cache_Controller.Data_Exclusive |      580850     49.52%     49.52% |      592024     50.48%    100.00% (Unspecified)
system.caches.L1Cache_Controller.Data_Exclusive::total      1172874                       (Unspecified)
system.caches.L1Cache_Controller.DataS_fromL1 |        5997     41.97%     41.97% |        8291     58.03%    100.00% (Unspecified)
system.caches.L1Cache_Controller.DataS_fromL1::total        14288                       (Unspecified)
system.caches.L1Cache_Controller.Data_all_Acks |       97628     52.27%     52.27% |       89141     47.73%    100.00% (Unspecified)
system.caches.L1Cache_Controller.Data_all_Acks::total       186769                       (Unspecified)
system.caches.L1Cache_Controller.Ack     |        4268     71.43%     71.43% |        1707     28.57%    100.00% (Unspecified)
system.caches.L1Cache_Controller.Ack::total         5975                       (Unspecified)
system.caches.L1Cache_Controller.Ack_all |        5092     74.88%     74.88% |        1708     25.12%    100.00% (Unspecified)
system.caches.L1Cache_Controller.Ack_all::total         6800                       (Unspecified)
system.caches.L1Cache_Controller.WB_Ack  |      596824     49.69%     49.69% |      604209     50.31%    100.00% (Unspecified)
system.caches.L1Cache_Controller.WB_Ack::total      1201033                       (Unspecified)
system.caches.L1Cache_Controller.NP.Load |      613577     49.46%     49.46% |      627022     50.54%    100.00% (Unspecified)
system.caches.L1Cache_Controller.NP.Load::total      1240599                       (Unspecified)
system.caches.L1Cache_Controller.NP.Ifetch |        9606     69.20%     69.20% |        4275     30.80%    100.00% (Unspecified)
system.caches.L1Cache_Controller.NP.Ifetch::total        13881                       (Unspecified)
system.caches.L1Cache_Controller.NP.Store |       29853     53.19%     53.19% |       26267     46.81%    100.00% (Unspecified)
system.caches.L1Cache_Controller.NP.Store::total        56120                       (Unspecified)
system.caches.L1Cache_Controller.NP.Inv  |        5659     48.47%     48.47% |        6017     51.53%    100.00% (Unspecified)
system.caches.L1Cache_Controller.NP.Inv::total        11676                       (Unspecified)
system.caches.L1Cache_Controller.I.Load  |        3423     51.79%     51.79% |        3186     48.21%    100.00% (Unspecified)
system.caches.L1Cache_Controller.I.Load::total         6609                       (Unspecified)
system.caches.L1Cache_Controller.I.Ifetch |        1614     54.18%     54.18% |        1365     45.82%    100.00% (Unspecified)
system.caches.L1Cache_Controller.I.Ifetch::total         2979                       (Unspecified)
system.caches.L1Cache_Controller.I.Store |       27227     49.90%     49.90% |       27341     50.10%    100.00% (Unspecified)
system.caches.L1Cache_Controller.I.Store::total        54568                       (Unspecified)
system.caches.L1Cache_Controller.I.L1_Replacement |        2978     35.57%     35.57% |        5395     64.43%    100.00% (Unspecified)
system.caches.L1Cache_Controller.I.L1_Replacement::total         8373                       (Unspecified)
system.caches.L1Cache_Controller.S.Load  |     3518747     48.55%     48.55% |     3728633     51.45%    100.00% (Unspecified)
system.caches.L1Cache_Controller.S.Load::total      7247380                       (Unspecified)
system.caches.L1Cache_Controller.S.Ifetch |    54254944     49.39%     49.39% |    55587480     50.61%    100.00% (Unspecified)
system.caches.L1Cache_Controller.S.Ifetch::total    109842424                       (Unspecified)
system.caches.L1Cache_Controller.S.Store |        4268     71.42%     71.42% |        1708     28.58%    100.00% (Unspecified)
system.caches.L1Cache_Controller.S.Store::total         5976                       (Unspecified)
system.caches.L1Cache_Controller.S.Inv   |        6222     42.87%     42.87% |        8292     57.13%    100.00% (Unspecified)
system.caches.L1Cache_Controller.S.Inv::total        14514                       (Unspecified)
system.caches.L1Cache_Controller.S.L1_Replacement |       44531     53.14%     53.14% |       39264     46.86%    100.00% (Unspecified)
system.caches.L1Cache_Controller.S.L1_Replacement::total        83795                       (Unspecified)
system.caches.L1Cache_Controller.E.Load  |     4895564     49.02%     49.02% |     5092258     50.98%    100.00% (Unspecified)
system.caches.L1Cache_Controller.E.Load::total      9987822                       (Unspecified)
system.caches.L1Cache_Controller.E.Store |       65627     47.91%     47.91% |       71349     52.09%    100.00% (Unspecified)
system.caches.L1Cache_Controller.E.Store::total       136976                       (Unspecified)
system.caches.L1Cache_Controller.E.Inv   |         525     53.41%     53.41% |         458     46.59%    100.00% (Unspecified)
system.caches.L1Cache_Controller.E.Inv::total          983                       (Unspecified)
system.caches.L1Cache_Controller.E.L1_Replacement |      505247     49.87%     49.87% |      507846     50.13%    100.00% (Unspecified)
system.caches.L1Cache_Controller.E.L1_Replacement::total      1013093                       (Unspecified)
system.caches.L1Cache_Controller.E.Fwd_GETX |           1      2.27%      2.27% |          43     97.73%    100.00% (Unspecified)
system.caches.L1Cache_Controller.E.Fwd_GETX::total           44                       (Unspecified)
system.caches.L1Cache_Controller.E.Fwd_GETS |        4610     51.14%     51.14% |        4405     48.86%    100.00% (Unspecified)
system.caches.L1Cache_Controller.E.Fwd_GETS::total         9015                       (Unspecified)
system.caches.L1Cache_Controller.M.Load  |     1181253     57.10%     57.10% |      887463     42.90%    100.00% (Unspecified)
system.caches.L1Cache_Controller.M.Load::total      2068716                       (Unspecified)
system.caches.L1Cache_Controller.M.Store |     2021736     50.94%     50.94% |     1946733     49.06%    100.00% (Unspecified)
system.caches.L1Cache_Controller.M.Store::total      3968469                       (Unspecified)
system.caches.L1Cache_Controller.M.Inv   |         273     49.10%     49.10% |         283     50.90%    100.00% (Unspecified)
system.caches.L1Cache_Controller.M.Inv::total          556                       (Unspecified)
system.caches.L1Cache_Controller.M.L1_Replacement |       91577     48.73%     48.73% |       96363     51.27%    100.00% (Unspecified)
system.caches.L1Cache_Controller.M.L1_Replacement::total       187940                       (Unspecified)
system.caches.L1Cache_Controller.M.Fwd_GETX |       28242     49.94%     49.94% |       28306     50.06%    100.00% (Unspecified)
system.caches.L1Cache_Controller.M.Fwd_GETX::total        56548                       (Unspecified)
system.caches.L1Cache_Controller.M.Fwd_GETS |        3681     69.81%     69.81% |        1592     30.19%    100.00% (Unspecified)
system.caches.L1Cache_Controller.M.Fwd_GETS::total         5273                       (Unspecified)
system.caches.L1Cache_Controller.IS.Inv  |           0      0.00%      0.00% |           1    100.00%    100.00% (Unspecified)
system.caches.L1Cache_Controller.IS.Inv::total            1                       (Unspecified)
system.caches.L1Cache_Controller.IS.Data_Exclusive |      580850     49.52%     49.52% |      592024     50.48%    100.00% (Unspecified)
system.caches.L1Cache_Controller.IS.Data_Exclusive::total      1172874                       (Unspecified)
system.caches.L1Cache_Controller.IS.DataS_fromL1 |        5997     41.98%     41.98% |        8290     58.02%    100.00% (Unspecified)
system.caches.L1Cache_Controller.IS.DataS_fromL1::total        14287                       (Unspecified)
system.caches.L1Cache_Controller.IS.Data_all_Acks |       41372     53.80%     53.80% |       35533     46.20%    100.00% (Unspecified)
system.caches.L1Cache_Controller.IS.Data_all_Acks::total        76905                       (Unspecified)
system.caches.L1Cache_Controller.IM.Data |         824     99.88%     99.88% |           1      0.12%    100.00% (Unspecified)
system.caches.L1Cache_Controller.IM.Data::total          825                       (Unspecified)
system.caches.L1Cache_Controller.IM.Data_all_Acks |       56256     51.21%     51.21% |       53608     48.79%    100.00% (Unspecified)
system.caches.L1Cache_Controller.IM.Data_all_Acks::total       109864                       (Unspecified)
system.caches.L1Cache_Controller.SM.Inv  |           0      0.00%      0.00% |           1    100.00%    100.00% (Unspecified)
system.caches.L1Cache_Controller.SM.Inv::total            1                       (Unspecified)
system.caches.L1Cache_Controller.SM.Ack  |        4268     71.43%     71.43% |        1707     28.57%    100.00% (Unspecified)
system.caches.L1Cache_Controller.SM.Ack::total         5975                       (Unspecified)
system.caches.L1Cache_Controller.SM.Ack_all |        5092     74.88%     74.88% |        1708     25.12%    100.00% (Unspecified)
system.caches.L1Cache_Controller.SM.Ack_all::total         6800                       (Unspecified)
system.caches.L1Cache_Controller.IS_I.DataS_fromL1 |           0      0.00%      0.00% |           1    100.00%    100.00% (Unspecified)
system.caches.L1Cache_Controller.IS_I.DataS_fromL1::total            1                       (Unspecified)
system.caches.L1Cache_Controller.M_I.WB_Ack |      596824     49.69%     49.69% |      604209     50.31%    100.00% (Unspecified)
system.caches.L1Cache_Controller.M_I.WB_Ack::total      1201033                       (Unspecified)
system.caches.Directory_Controller.Fetch      1172096      0.00%      0.00% (Unspecified)
system.caches.Directory_Controller.Data        174064      0.00%      0.00% (Unspecified)
system.caches.Directory_Controller.Memory_Data      1172095      0.00%      0.00% (Unspecified)
system.caches.Directory_Controller.Memory_Ack       174064      0.00%      0.00% (Unspecified)
system.caches.Directory_Controller.CleanReplacement       866960      0.00%      0.00% (Unspecified)
system.caches.Directory_Controller.I.Fetch      1172096      0.00%      0.00% (Unspecified)
system.caches.Directory_Controller.M.Data       174064      0.00%      0.00% (Unspecified)
system.caches.Directory_Controller.M.CleanReplacement       866960      0.00%      0.00% (Unspecified)
system.caches.Directory_Controller.IM.Memory_Data      1172095      0.00%      0.00% (Unspecified)
system.caches.Directory_Controller.MI.Memory_Ack       174064      0.00%      0.00% (Unspecified)
system.caches.L2Cache_Controller.L1_GET_INSTR |        1799     10.67%     10.67% |        2567     15.22%     25.89% |        2210     13.11%     39.00% |        1536      9.11%     48.11% |        1951     11.57%     59.68% |        2177     12.91%     72.59% |        2285     13.55%     86.15% |        2336     13.85%    100.00% (Unspecified)
system.caches.L2Cache_Controller.L1_GET_INSTR::total        16861                       (Unspecified)
system.caches.L2Cache_Controller.L1_GETS |      156961     12.58%     12.58% |      155795     12.49%     25.07% |      154982     12.42%     37.49% |      154653     12.40%     49.89% |      158766     12.73%     62.62% |      154740     12.40%     75.02% |      155798     12.49%     87.51% |      155776     12.49%    100.00% (Unspecified)
system.caches.L2Cache_Controller.L1_GETS::total      1247471                       (Unspecified)
system.caches.L2Cache_Controller.L1_GETX |       22450     20.17%     20.17% |        9765      8.77%     28.95% |       17901     16.08%     45.03% |        6720      6.04%     51.07% |       22031     19.80%     70.86% |        7111      6.39%     77.25% |       18423     16.55%     93.81% |        6894      6.19%    100.00% (Unspecified)
system.caches.L2Cache_Controller.L1_GETX::total       111295                       (Unspecified)
system.caches.L2Cache_Controller.L1_UPGRADE |         738     11.94%     11.94% |         739     11.96%     23.90% |         684     11.07%     34.96% |         685     11.08%     46.04% |         699     11.31%     57.35% |         680     11.00%     68.35% |        1269     20.53%     88.89% |         687     11.11%    100.00% (Unspecified)
system.caches.L2Cache_Controller.L1_UPGRADE::total         6181                       (Unspecified)
system.caches.L2Cache_Controller.L1_PUTX |      150778     12.55%     12.55% |      150691     12.55%     25.10% |      149571     12.45%     37.55% |      150093     12.50%     50.05% |      148006     12.32%     62.37% |      150659     12.54%     74.92% |      150643     12.54%     87.46% |      150592     12.54%    100.00% (Unspecified)
system.caches.L2Cache_Controller.L1_PUTX::total      1201033                       (Unspecified)
system.caches.L2Cache_Controller.L2_Replacement |       21749     12.52%     12.52% |       21657     12.47%     24.99% |       21719     12.50%     37.49% |       21710     12.50%     49.99% |       21710     12.50%     62.49% |       21756     12.52%     75.01% |       21710     12.50%     87.51% |       21699     12.49%    100.00% (Unspecified)
system.caches.L2Cache_Controller.L2_Replacement::total       173710                       (Unspecified)
system.caches.L2Cache_Controller.L2_Replacement_clean |      108604     12.52%     12.52% |      108468     12.51%     25.03% |      108024     12.46%     37.48% |      108253     12.48%     49.96% |      108576     12.52%     62.48% |      108359     12.49%     74.98% |      108625     12.52%     87.50% |      108405     12.50%    100.00% (Unspecified)
system.caches.L2Cache_Controller.L2_Replacement_clean::total       867314                       (Unspecified)
system.caches.L2Cache_Controller.Mem_Data |      146737     12.52%     12.52% |      146509     12.50%     25.02% |      146127     12.47%     37.49% |      146347     12.49%     49.97% |      146670     12.51%     62.49% |      146498     12.50%     74.98% |      146719     12.52%     87.50% |      146488     12.50%    100.00% (Unspecified)
system.caches.L2Cache_Controller.Mem_Data::total      1172095                       (Unspecified)
system.caches.L2Cache_Controller.Mem_Ack |      130353     12.52%     12.52% |      130125     12.50%     25.02% |      129743     12.46%     37.48% |      129963     12.48%     49.97% |      130286     12.52%     62.48% |      130115     12.50%     74.98% |      130335     12.52%     87.50% |      130104     12.50%    100.00% (Unspecified)
system.caches.L2Cache_Controller.Mem_Ack::total      1041024                       (Unspecified)
system.caches.L2Cache_Controller.WB_Data |         789     13.54%     13.54% |         687     11.79%     25.32% |         644     11.05%     36.37% |         674     11.56%     47.93% |         659     11.31%     59.24% |         639     10.96%     70.20% |        1075     18.44%     88.64% |         662     11.36%    100.00% (Unspecified)
system.caches.L2Cache_Controller.WB_Data::total         5829                       (Unspecified)
system.caches.L2Cache_Controller.WB_Data_clean |         797      8.84%      8.84% |         798      8.85%     17.69% |         825      9.15%     26.84% |         791      8.77%     35.62% |        3454     38.31%     73.93% |         795      8.82%     82.75% |         753      8.35%     91.10% |         802      8.90%    100.00% (Unspecified)
system.caches.L2Cache_Controller.WB_Data_clean::total         9015                       (Unspecified)
system.caches.L2Cache_Controller.Ack     |         779      9.39%      9.39% |         747      9.00%     18.39% |         763      9.19%     27.58% |         726      8.75%     36.33% |        3073     37.03%     73.37% |         753      9.07%     82.44% |         721      8.69%     91.13% |         736      8.87%    100.00% (Unspecified)
system.caches.L2Cache_Controller.Ack::total         8298                       (Unspecified)
system.caches.L2Cache_Controller.Ack_all |        1267     10.49%     10.49% |        1228     10.17%     20.66% |        1228     10.17%     30.83% |        1215     10.06%     40.89% |        3519     29.14%     70.03% |        1230     10.18%     80.21% |        1173      9.71%     89.92% |        1217     10.08%    100.00% (Unspecified)
system.caches.L2Cache_Controller.Ack_all::total        12077                       (Unspecified)
system.caches.L2Cache_Controller.Unblock |        1513     10.59%     10.59% |        1409      9.86%     20.45% |        1411      9.88%     30.33% |        1382      9.67%     40.00% |        4057     28.39%     68.39% |        1358      9.50%     77.90% |        1762     12.33%     90.23% |        1396      9.77%    100.00% (Unspecified)
system.caches.L2Cache_Controller.Unblock::total        14288                       (Unspecified)
system.caches.L2Cache_Controller.Exclusive_Unblock |      169886     13.17%     13.17% |      157366     12.20%     25.38% |      164437     12.75%     38.13% |      153746     11.92%     50.05% |      169487     13.14%     63.19% |      154258     11.96%     75.16% |      166097     12.88%     88.04% |      154261     11.96%    100.00% (Unspecified)
system.caches.L2Cache_Controller.Exclusive_Unblock::total      1289538                       (Unspecified)
system.caches.L2Cache_Controller.NP.L1_GET_INSTR |         770     12.97%     12.97% |         791     13.32%     26.28% |         714     12.02%     38.31% |         727     12.24%     50.55% |         734     12.36%     62.91% |         749     12.61%     75.52% |         715     12.04%     87.56% |         739     12.44%    100.00% (Unspecified)
system.caches.L2Cache_Controller.NP.L1_GET_INSTR::total         5939                       (Unspecified)
system.caches.L2Cache_Controller.NP.L1_GETS |      139919     12.52%     12.52% |      139656     12.49%     25.01% |      139383     12.47%     37.48% |      139558     12.49%     49.97% |      139875     12.51%     62.48% |      139678     12.50%     74.98% |      139954     12.52%     87.50% |      139673     12.50%    100.00% (Unspecified)
system.caches.L2Cache_Controller.NP.L1_GETS::total      1117696                       (Unspecified)
system.caches.L2Cache_Controller.NP.L1_GETX |        6048     12.48%     12.48% |        6062     12.51%     24.99% |        6030     12.44%     37.43% |        6062     12.51%     49.94% |        6061     12.51%     62.45% |        6072     12.53%     74.98% |        6050     12.48%     87.46% |        6076     12.54%    100.00% (Unspecified)
system.caches.L2Cache_Controller.NP.L1_GETX::total        48461                       (Unspecified)
system.caches.L2Cache_Controller.SS.L1_GET_INSTR |         947      9.16%      9.16% |        1688     16.32%     25.48% |        1423     13.76%     39.23% |         747      7.22%     46.46% |        1139     11.01%     57.47% |        1355     13.10%     70.57% |        1517     14.67%     85.24% |        1527     14.76%    100.00% (Unspecified)
system.caches.L2Cache_Controller.SS.L1_GET_INSTR::total        10343                       (Unspecified)
system.caches.L2Cache_Controller.SS.L1_GETS |        8557     14.27%     14.27% |        7501     12.51%     26.78% |        7579     12.64%     39.43% |        6918     11.54%     50.96% |        7755     12.94%     63.90% |        6912     11.53%     75.43% |        7041     11.74%     87.17% |        7690     12.83%    100.00% (Unspecified)
system.caches.L2Cache_Controller.SS.L1_GETS::total        59953                       (Unspecified)
system.caches.L2Cache_Controller.SS.L1_GETX |         163     19.76%     19.76% |          94     11.39%     31.15% |          93     11.27%     42.42% |          87     10.55%     52.97% |         102     12.36%     65.33% |          76      9.21%     74.55% |         118     14.30%     88.85% |          92     11.15%    100.00% (Unspecified)
system.caches.L2Cache_Controller.SS.L1_GETX::total          825                       (Unspecified)
system.caches.L2Cache_Controller.SS.L1_UPGRADE |         738     12.35%     12.35% |         739     12.37%     24.72% |         684     11.45%     36.17% |         685     11.46%     47.63% |         699     11.70%     59.33% |         680     11.38%     70.71% |        1064     17.81%     88.52% |         686     11.48%    100.00% (Unspecified)
system.caches.L2Cache_Controller.SS.L1_UPGRADE::total         5975                       (Unspecified)
system.caches.L2Cache_Controller.SS.L2_Replacement |         223     12.95%     12.95% |         205     11.90%     24.85% |         214     12.43%     37.28% |         220     12.78%     50.06% |         209     12.14%     62.20% |         207     12.02%     74.22% |         226     13.12%     87.34% |         218     12.66%    100.00% (Unspecified)
system.caches.L2Cache_Controller.SS.L2_Replacement::total         1722                       (Unspecified)
system.caches.L2Cache_Controller.SS.L2_Replacement_clean |         904      9.65%      9.65% |         905      9.66%     19.30% |         891      9.51%     28.81% |         871      9.29%     38.10% |        3201     34.15%     72.26% |         901      9.61%     81.87% |         831      8.87%     90.74% |         868      9.26%    100.00% (Unspecified)
system.caches.L2Cache_Controller.SS.L2_Replacement_clean::total         9372                       (Unspecified)
system.caches.L2Cache_Controller.M.L1_GETS |        6959     12.60%     12.60% |        7217     13.07%     25.67% |        6604     11.96%     37.63% |        6789     12.29%     49.92% |        7067     12.80%     62.72% |        6791     12.30%     75.01% |        6788     12.29%     87.31% |        7010     12.69%    100.00% (Unspecified)
system.caches.L2Cache_Controller.M.L1_GETS::total        55225                       (Unspecified)
system.caches.L2Cache_Controller.M.L1_GETX |         678     14.09%     14.09% |         548     11.39%     25.48% |         379      7.88%     33.36% |         527     10.95%     44.32% |         449      9.33%     53.65% |         929     19.31%     72.96% |         641     13.32%     86.28% |         660     13.72%    100.00% (Unspecified)
system.caches.L2Cache_Controller.M.L1_GETX::total         4811                       (Unspecified)
system.caches.L2Cache_Controller.M.L2_Replacement |       21500     12.52%     12.52% |       21427     12.47%     24.99% |       21483     12.51%     37.50% |       21458     12.49%     49.99% |       21475     12.50%     62.49% |       21516     12.53%     75.01% |       21461     12.49%     87.51% |       21458     12.49%    100.00% (Unspecified)
system.caches.L2Cache_Controller.M.L2_Replacement::total       171778                       (Unspecified)
system.caches.L2Cache_Controller.M.L2_Replacement_clean |      107513     12.55%     12.55% |      107394     12.54%     25.09% |      106974     12.49%     37.58% |      107207     12.52%     50.09% |      105236     12.29%     62.38% |      107293     12.53%     74.90% |      107635     12.57%     87.47% |      107361     12.53%    100.00% (Unspecified)
system.caches.L2Cache_Controller.M.L2_Replacement_clean::total       856613                       (Unspecified)
system.caches.L2Cache_Controller.MT.L1_GETS |        1513     10.59%     10.59% |        1409      9.86%     20.45% |        1411      9.88%     30.33% |        1382      9.67%     40.00% |        4057     28.39%     68.39% |        1358      9.50%     77.90% |        1762     12.33%     90.23% |        1396      9.77%    100.00% (Unspecified)
system.caches.L2Cache_Controller.MT.L1_GETS::total        14288                       (Unspecified)
system.caches.L2Cache_Controller.MT.L1_GETX |       15393     27.20%     27.20% |        3061      5.41%     32.61% |       11269     19.91%     52.52% |          44      0.08%     52.60% |       15242     26.93%     79.53% |          34      0.06%     79.59% |       11484     20.29%     99.89% |          65      0.11%    100.00% (Unspecified)
system.caches.L2Cache_Controller.MT.L1_GETX::total        56592                       (Unspecified)
system.caches.L2Cache_Controller.MT.L1_PUTX |      150778     12.55%     12.55% |      150691     12.55%     25.10% |      149571     12.45%     37.55% |      150093     12.50%     50.05% |      148006     12.32%     62.37% |      150659     12.54%     74.92% |      150643     12.54%     87.46% |      150592     12.54%    100.00% (Unspecified)
system.caches.L2Cache_Controller.MT.L1_PUTX::total      1201033                       (Unspecified)
system.caches.L2Cache_Controller.MT.L2_Replacement |          26     12.38%     12.38% |          25     11.90%     24.29% |          22     10.48%     34.76% |          32     15.24%     50.00% |          26     12.38%     62.38% |          33     15.71%     78.10% |          23     10.95%     89.05% |          23     10.95%    100.00% (Unspecified)
system.caches.L2Cache_Controller.MT.L2_Replacement::total          210                       (Unspecified)
system.caches.L2Cache_Controller.MT.L2_Replacement_clean |         187     14.07%     14.07% |         169     12.72%     26.79% |         159     11.96%     38.75% |         175     13.17%     51.92% |         139     10.46%     62.38% |         165     12.42%     74.79% |         159     11.96%     86.76% |         176     13.24%    100.00% (Unspecified)
system.caches.L2Cache_Controller.MT.L2_Replacement_clean::total         1329                       (Unspecified)
system.caches.L2Cache_Controller.M_I.L1_GET_INSTR |           0      0.00%      0.00% |           0      0.00%      0.00% |           0      0.00%      0.00% |           0      0.00%      0.00% |           0      0.00%      0.00% |           0      0.00%      0.00% |           0      0.00%      0.00% |           1    100.00%    100.00% (Unspecified)
system.caches.L2Cache_Controller.M_I.L1_GET_INSTR::total            1                       (Unspecified)
system.caches.L2Cache_Controller.M_I.L1_GETX |           0      0.00%      0.00% |           0      0.00%      0.00% |           0      0.00%      0.00% |           0      0.00%      0.00% |           0      0.00%      0.00% |           0      0.00%      0.00% |           0      0.00%      0.00% |           1    100.00%    100.00% (Unspecified)
system.caches.L2Cache_Controller.M_I.L1_GETX::total            1                       (Unspecified)
system.caches.L2Cache_Controller.M_I.Mem_Ack |      130353     12.52%     12.52% |      130125     12.50%     25.02% |      129743     12.46%     37.48% |      129963     12.48%     49.97% |      130286     12.52%     62.48% |      130115     12.50%     74.98% |      130335     12.52%     87.50% |      130104     12.50%    100.00% (Unspecified)
system.caches.L2Cache_Controller.M_I.Mem_Ack::total      1041024                       (Unspecified)
system.caches.L2Cache_Controller.MT_I.WB_Data |          24     11.88%     11.88% |          25     12.38%     24.26% |          22     10.89%     35.15% |          31     15.35%     50.50% |          25     12.38%     62.87% |          32     15.84%     78.71% |          22     10.89%     89.60% |          21     10.40%    100.00% (Unspecified)
system.caches.L2Cache_Controller.MT_I.WB_Data::total          202                       (Unspecified)
system.caches.L2Cache_Controller.MT_I.Ack_all |           2     25.00%     25.00% |           0      0.00%     25.00% |           0      0.00%     25.00% |           1     12.50%     37.50% |           1     12.50%     50.00% |           1     12.50%     62.50% |           1     12.50%     75.00% |           2     25.00%    100.00% (Unspecified)
system.caches.L2Cache_Controller.MT_I.Ack_all::total            8                       (Unspecified)
system.caches.L2Cache_Controller.MCT_I.WB_Data |          49     13.84%     13.84% |          51     14.41%     28.25% |          36     10.17%     38.42% |          52     14.69%     53.11% |          31      8.76%     61.86% |          44     12.43%     74.29% |          44     12.43%     86.72% |          47     13.28%    100.00% (Unspecified)
system.caches.L2Cache_Controller.MCT_I.WB_Data::total          354                       (Unspecified)
system.caches.L2Cache_Controller.MCT_I.Ack_all |         138     14.15%     14.15% |         118     12.10%     26.26% |         123     12.62%     38.87% |         123     12.62%     51.49% |         108     11.08%     62.56% |         121     12.41%     74.97% |         115     11.79%     86.77% |         129     13.23%    100.00% (Unspecified)
system.caches.L2Cache_Controller.MCT_I.Ack_all::total          975                       (Unspecified)
system.caches.L2Cache_Controller.I_I.Ack |         556      8.45%      8.45% |         542      8.24%     16.70% |         549      8.35%     25.05% |         506      7.69%     32.74% |        2864     43.55%     76.29% |         546      8.30%     84.60% |         495      7.53%     92.12% |         518      7.88%    100.00% (Unspecified)
system.caches.L2Cache_Controller.I_I.Ack::total         6576                       (Unspecified)
system.caches.L2Cache_Controller.I_I.Ack_all |         904      9.65%      9.65% |         905      9.66%     19.30% |         891      9.51%     28.81% |         871      9.29%     38.10% |        3201     34.15%     72.26% |         901      9.61%     81.87% |         831      8.87%     90.74% |         868      9.26%    100.00% (Unspecified)
system.caches.L2Cache_Controller.I_I.Ack_all::total         9372                       (Unspecified)
system.caches.L2Cache_Controller.S_I.Ack |         223     12.95%     12.95% |         205     11.90%     24.85% |         214     12.43%     37.28% |         220     12.78%     50.06% |         209     12.14%     62.20% |         207     12.02%     74.22% |         226     13.12%     87.34% |         218     12.66%    100.00% (Unspecified)
system.caches.L2Cache_Controller.S_I.Ack::total         1722                       (Unspecified)
system.caches.L2Cache_Controller.S_I.Ack_all |         223     12.95%     12.95% |         205     11.90%     24.85% |         214     12.43%     37.28% |         220     12.78%     50.06% |         209     12.14%     62.20% |         207     12.02%     74.22% |         226     13.12%     87.34% |         218     12.66%    100.00% (Unspecified)
system.caches.L2Cache_Controller.S_I.Ack_all::total         1722                       (Unspecified)
system.caches.L2Cache_Controller.ISS.L1_GETS |          12     26.09%     26.09% |          11     23.91%     50.00% |           5     10.87%     60.87% |           6     13.04%     73.91% |           8     17.39%     91.30% |           1      2.17%     93.48% |           2      4.35%     97.83% |           1      2.17%    100.00% (Unspecified)
system.caches.L2Cache_Controller.ISS.L1_GETS::total           46                       (Unspecified)
system.caches.L2Cache_Controller.ISS.Mem_Data |      139907     12.52%     12.52% |      139645     12.49%     25.01% |      139378     12.47%     37.48% |      139552     12.49%     49.97% |      139867     12.51%     62.48% |      139676     12.50%     74.98% |      139952     12.52%     87.50% |      139672     12.50%    100.00% (Unspecified)
system.caches.L2Cache_Controller.ISS.Mem_Data::total      1117649                       (Unspecified)
system.caches.L2Cache_Controller.IS.L1_GET_INSTR |          82     14.19%     14.19% |          88     15.22%     29.41% |          73     12.63%     42.04% |          62     10.73%     52.77% |          78     13.49%     66.26% |          73     12.63%     78.89% |          53      9.17%     88.06% |          69     11.94%    100.00% (Unspecified)
system.caches.L2Cache_Controller.IS.L1_GET_INSTR::total          578                       (Unspecified)
system.caches.L2Cache_Controller.IS.Mem_Data |         782     13.07%     13.07% |         802     13.40%     26.47% |         719     12.01%     38.48% |         733     12.25%     50.73% |         742     12.40%     63.12% |         750     12.53%     75.66% |         717     11.98%     87.64% |         740     12.36%    100.00% (Unspecified)
system.caches.L2Cache_Controller.IS.Mem_Data::total         5985                       (Unspecified)
system.caches.L2Cache_Controller.IM.L1_GETX |           3     50.00%     50.00% |           0      0.00%     50.00% |           0      0.00%     50.00% |           0      0.00%     50.00% |           2     33.33%     83.33% |           0      0.00%     83.33% |           1     16.67%    100.00% |           0      0.00%    100.00% (Unspecified)
system.caches.L2Cache_Controller.IM.L1_GETX::total            6                       (Unspecified)
system.caches.L2Cache_Controller.IM.Mem_Data |        6048     12.48%     12.48% |        6062     12.51%     24.99% |        6030     12.44%     37.43% |        6062     12.51%     49.94% |        6061     12.51%     62.45% |        6072     12.53%     74.98% |        6050     12.48%     87.46% |        6076     12.54%    100.00% (Unspecified)
system.caches.L2Cache_Controller.IM.Mem_Data::total        48461                       (Unspecified)
system.caches.L2Cache_Controller.SS_MB.L1_GETS |           1      0.39%      0.39% |           0      0.00%      0.39% |           0      0.00%      0.39% |           0      0.00%      0.39% |           4      1.55%      1.94% |           0      0.00%      1.94% |         251     97.29%     99.22% |           2      0.78%    100.00% (Unspecified)
system.caches.L2Cache_Controller.SS_MB.L1_GETS::total          258                       (Unspecified)
system.caches.L2Cache_Controller.SS_MB.L1_UPGRADE |           0      0.00%      0.00% |           0      0.00%      0.00% |           0      0.00%      0.00% |           0      0.00%      0.00% |           0      0.00%      0.00% |           0      0.00%      0.00% |           0      0.00%      0.00% |           1    100.00%    100.00% (Unspecified)
system.caches.L2Cache_Controller.SS_MB.L1_UPGRADE::total            1                       (Unspecified)
system.caches.L2Cache_Controller.SS_MB.Exclusive_Unblock |         901     13.25%     13.25% |         833     12.25%     25.50% |         777     11.43%     36.93% |         772     11.35%     48.28% |         801     11.78%     60.06% |         756     11.12%     71.18% |        1182     17.38%     88.56% |         778     11.44%    100.00% (Unspecified)
system.caches.L2Cache_Controller.SS_MB.Exclusive_Unblock::total         6800                       (Unspecified)
system.caches.L2Cache_Controller.MT_MB.L1_GETS |           0      0.00%      0.00% |           1     20.00%     20.00% |           0      0.00%     20.00% |           0      0.00%     20.00% |           0      0.00%     20.00% |           0      0.00%     20.00% |           0      0.00%     20.00% |           4     80.00%    100.00% (Unspecified)
system.caches.L2Cache_Controller.MT_MB.L1_GETS::total            5                       (Unspecified)
system.caches.L2Cache_Controller.MT_MB.L1_GETX |         165     27.55%     27.55% |           0      0.00%     27.55% |         130     21.70%     49.25% |           0      0.00%     49.25% |         175     29.22%     78.46% |           0      0.00%     78.46% |         129     21.54%    100.00% |           0      0.00%    100.00% (Unspecified)
system.caches.L2Cache_Controller.MT_MB.L1_GETX::total          599                       (Unspecified)
system.caches.L2Cache_Controller.MT_MB.Exclusive_Unblock |      168985     13.17%     13.17% |      156533     12.20%     25.38% |      163660     12.76%     38.14% |      152974     11.93%     50.06% |      168686     13.15%     63.21% |      153502     11.97%     75.18% |      164915     12.86%     88.03% |      153483     11.97%    100.00% (Unspecified)
system.caches.L2Cache_Controller.MT_MB.Exclusive_Unblock::total      1282738                       (Unspecified)
system.caches.L2Cache_Controller.MT_IIB.WB_Data |         716     13.58%     13.58% |         611     11.59%     25.17% |         586     11.11%     36.28% |         591     11.21%     47.49% |         603     11.44%     58.92% |         563     10.68%     69.60% |        1009     19.14%     88.74% |         594     11.26%    100.00% (Unspecified)
system.caches.L2Cache_Controller.MT_IIB.WB_Data::total         5273                       (Unspecified)
system.caches.L2Cache_Controller.MT_IIB.WB_Data_clean |         797      8.84%      8.84% |         798      8.85%     17.69% |         825      9.15%     26.84% |         791      8.77%     35.62% |        3454     38.31%     73.93% |         795      8.82%     82.75% |         753      8.35%     91.10% |         802      8.90%    100.00% (Unspecified)
[...]
system.timingCpu0.exec_context.thread_0.statExecutedInstType::FloatMemRead         1819      0.00%     99.89% # Class of executed instruction. (Count)
system.timingCpu0.exec_context.thread_0.statExecutedInstType::FloatMemWrite        83646      0.11%    100.00% # Class of executed instruction. (Count)
system.timingCpu0.exec_context.thread_0.statExecutedInstType::IprAccess            0      0.00%    100.00% # Class of executed instruction. (Count)
system.timingCpu0.exec_context.thread_0.statExecutedInstType::InstPrefetch            0      0.00%    100.00% # Class of executed instruction. (Count)
system.timingCpu0.exec_context.thread_0.statExecutedInstType::total     73015276                       # Class of executed instruction. (Count)
system.timingCpu0.mmu.dtb.rdAccesses         10846448                       # TLB accesses on read requests (Count)
system.timingCpu0.mmu.dtb.wrAccesses          1483157                       # TLB accesses on write requests (Count)
system.timingCpu0.mmu.dtb.rdMisses               8854                       # TLB misses on read requests (Count)
system.timingCpu0.mmu.dtb.wrMisses                616                       # TLB misses on write requests (Count)
system.timingCpu0.mmu.dtb.walker.power_state.pwrStateResidencyTicks::UNDEFINED 160820810563251                       # Cumulative time (in ticks) in various power states (Tick)
system.timingCpu0.mmu.itb.rdAccesses                0                       # TLB accesses on read requests (Count)
system.timingCpu0.mmu.itb.wrAccesses         54267405                       # TLB accesses on write requests (Count)
system.timingCpu0.mmu.itb.rdMisses                  0                       # TLB misses on read requests (Count)
system.timingCpu0.mmu.itb.wrMisses               1241                       # TLB misses on write requests (Count)
system.timingCpu0.mmu.itb.walker.power_state.pwrStateResidencyTicks::UNDEFINED 160820810563251                       # Cumulative time (in ticks) in various power states (Tick)
system.timingCpu0.power_state.numTransitions            2                       # Number of power state transitions (Count)
system.timingCpu0.power_state.ticksClkGated::samples            1                       # Distribution of time spent in the clock gated state (Tick)
system.timingCpu0.power_state.ticksClkGated::mean      6066000                       # Distribution of time spent in the clock gated state (Tick)
system.timingCpu0.power_state.ticksClkGated::1000-5e+10            1    100.00%    100.00% # Distribution of time spent in the clock gated state (Tick)
system.timingCpu0.power_state.ticksClkGated::min_value      6066000                       # Distribution of time spent in the clock gated state (Tick)
system.timingCpu0.power_state.ticksClkGated::max_value      6066000                       # Distribution of time spent in the clock gated state (Tick)
system.timingCpu0.power_state.ticksClkGated::total            1                       # Distribution of time spent in the clock gated state (Tick)
system.timingCpu0.power_state.pwrStateResidencyTicks::ON  90933947251                       # Cumulative time (in ticks) in various power states (Tick)
system.timingCpu0.power_state.pwrStateResidencyTicks::CLK_GATED      6066000                       # Cumulative time (in ticks) in various power states (Tick)
system.timingCpu0.power_state.pwrStateResidencyTicks::OFF 160729870550000                       # Cumulative time (in ticks) in various power states (Tick)
system.timingCpu0.thread_0.numInsts                 0                       # Number of Instructions committed (Count)
system.timingCpu0.thread_0.numOps                   0                       # Number of Ops committed (Count)
system.timingCpu0.thread_0.numMemRefs               0                       # Number of Memory References (Count)
system.timingCpu1.numCycles                 406120231                       # Number of cpu cycles simulated (Cycle)
system.timingCpu1.numWorkItemsStarted               0                       # Number of work items this cpu started (Count)
system.timingCpu1.numWorkItemsCompleted             0                       # Number of work items this cpu completed (Count)
system.timingCpu1.exec_context.thread_0.numInsts     44890611                       # Number of instructions committed (Count)
system.timingCpu1.exec_context.thread_0.numOps     74439327                       # Number of ops (including micro ops) committed (Count)
system.timingCpu1.exec_context.thread_0.numIntAluAccesses     73509722                       # Number of integer alu accesses (Count)
system.timingCpu1.exec_context.thread_0.numFpAluAccesses        12868                       # Number of float alu accesses (Count)
system.timingCpu1.exec_context.thread_0.numVecAluAccesses            0                       # Number of vector alu accesses (Count)
system.timingCpu1.exec_context.thread_0.numCallsReturns        51900                       # Number of times a function call or return occured (Count)
system.timingCpu1.exec_context.thread_0.numCondCtrlInsts      9427509                       # Number of instructions that are conditional controls (Count)
system.timingCpu1.exec_context.thread_0.numIntInsts     73509722                       # Number of integer instructions (Count)
system.timingCpu1.exec_context.thread_0.numFpInsts        12868                       # Number of float instructions (Count)
system.timingCpu1.exec_context.thread_0.numVecInsts            0                       # Number of vector instructions (Count)
system.timingCpu1.exec_context.thread_0.numIntRegReads     93921748                       # Number of times the integer registers were read (Count)
system.timingCpu1.exec_context.thread_0.numIntRegWrites     53174818                       # Number of times the integer registers were written (Count)
system.timingCpu1.exec_context.thread_0.numFpRegReads         9476                       # Number of times the floating registers were read (Count)
system.timingCpu1.exec_context.thread_0.numFpRegWrites         7088                       # Number of times the floating registers were written (Count)
system.timingCpu1.exec_context.thread_0.numVecRegReads            0                       # Number of times the vector registers were read (Count)
system.timingCpu1.exec_context.thread_0.numVecRegWrites            0                       # Number of times the vector registers were written (Count)
system.timingCpu1.exec_context.thread_0.numVecPredRegReads            0                       # Number of times the predicate registers were read (Count)
system.timingCpu1.exec_context.thread_0.numVecPredRegWrites            0                       # Number of times the predicate registers were written (Count)
system.timingCpu1.exec_context.thread_0.numCCRegReads     52720028                       # Number of times the CC registers were read (Count)
system.timingCpu1.exec_context.thread_0.numCCRegWrites     37202273                       # Number of times the CC registers were written (Count)
system.timingCpu1.exec_context.thread_0.numMiscRegReads     31362924                       # Number of times the Misc registers were read (Count)
system.timingCpu1.exec_context.thread_0.numMiscRegWrites         8289                       # Number of times the Misc registers were written (Count)
system.timingCpu1.exec_context.thread_0.numMemRefs     12381387                       # Number of memory refs (Count)
system.timingCpu1.exec_context.thread_0.numLoadInsts     10964597                       # Number of load instructions (Count)
system.timingCpu1.exec_context.thread_0.numStoreInsts      1416790                       # Number of store instructions (Count)
system.timingCpu1.exec_context.thread_0.numIdleCycles 3455010.999932                       # Number of idle cycles (Cycle)
system.timingCpu1.exec_context.thread_0.numBusyCycles 402665220.000068                       # Number of busy cycles (Cycle)
system.timingCpu1.exec_context.thread_0.notIdleFraction     0.991493                       # Percentage of non-idle cycles (Ratio)
system.timingCpu1.exec_context.thread_0.idleFraction     0.008507                       # Percentage of idle cycles (Ratio)
system.timingCpu1.exec_context.thread_0.numBranches      9496891                       # Number of branches fetched (Count)
system.timingCpu1.exec_context.thread_0.statExecutedInstType::No_OpClass       197241      0.26%      0.26% # Class of executed instruction. (Count)
system.timingCpu1.exec_context.thread_0.statExecutedInstType::IntAlu     61854695     83.09%     83.36% # Class of executed instruction. (Count)
system.timingCpu1.exec_context.thread_0.statExecutedInstType::IntMult         2402      0.00%     83.36% # Class of executed instruction. (Count)
system.timingCpu1.exec_context.thread_0.statExecutedInstType::IntDiv         5054      0.01%     83.37% # Class of executed instruction. (Count)
system.timingCpu1.exec_context.thread_0.statExecutedInstType::FloatAdd           34      0.00%     83.37% # Class of executed instruction. (Count)
system.timingCpu1.exec_context.thread_0.statExecutedInstType::FloatCmp            0      0.00%     83.37% # Class of executed instruction. (Count)
system.timingCpu1.exec_context.thread_0.statExecutedInstType::FloatCvt           64      0.00%     83.37% # Class of executed instruction. (Count)
system.timingCpu1.exec_context.thread_0.statExecutedInstType::FloatMult            0      0.00%     83.37% # Class of executed instruction. (Count)
system.timingCpu1.exec_context.thread_0.statExecutedInstType::FloatMultAcc            0      0.00%     83.37% # Class of executed instruction. (Count)
system.timingCpu1.exec_context.thread_0.statExecutedInstType::FloatDiv            0      0.00%     83.37% # Class of executed instruction. (Count)
system.timingCpu1.exec_context.thread_0.statExecutedInstType::FloatMisc            0      0.00%     83.37% # Class of executed instruction. (Count)
system.timingCpu1.exec_context.thread_0.statExecutedInstType::FloatSqrt            0      0.00%     83.37% # Class of executed instruction. (Count)
system.timingCpu1.exec_context.thread_0.statExecutedInstType::SimdAdd          426      0.00%     83.37% # Class of executed instruction. (Count)
system.timingCpu1.exec_context.thread_0.statExecutedInstType::SimdAddAcc            0      0.00%     83.37% # Class of executed instruction. (Count)
system.timingCpu1.exec_context.thread_0.statExecutedInstType::SimdAlu           86      0.00%     83.37% # Class of executed instruction. (Count)
system.timingCpu1.exec_context.thread_0.statExecutedInstType::SimdCmp            0      0.00%     83.37% # Class of executed instruction. (Count)
system.timingCpu1.exec_context.thread_0.statExecutedInstType::SimdCvt          168      0.00%     83.37% # Class of executed instruction. (Count)
system.timingCpu1.exec_context.thread_0.statExecutedInstType::SimdMisc          176      0.00%     83.37% # Class of executed instruction. (Count)
system.timingCpu1.exec_context.thread_0.statExecutedInstType::SimdMult            0      0.00%     83.37% # Class of executed instruction. (Count)
system.timingCpu1.exec_context.thread_0.statExecutedInstType::SimdMultAcc            0      0.00%     83.37% # Class of executed instruction. (Count)
system.timingCpu1.exec_context.thread_0.statExecutedInstType::SimdShift          234      0.00%     83.37% # Class of executed instruction. (Count)
system.timingCpu1.exec_context.thread_0.statExecutedInstType::SimdShiftAcc            0      0.00%     83.37% # Class of executed instruction. (Count)
system.timingCpu1.exec_context.thread_0.statExecutedInstType::SimdDiv            0      0.00%     83.37% # Class of executed instruction. (Count)
system.timingCpu1.exec_context.thread_0.statExecutedInstType::SimdSqrt            0      0.00%     83.37% # Class of executed instruction. (Count)
system.timingCpu1.exec_context.thread_0.statExecutedInstType::SimdFloatAdd            0      0.00%     83.37% # Class of executed instruction. (Count)
system.timingCpu1.exec_context.thread_0.statExecutedInstType::SimdFloatAlu            0      0.00%     83.37% # Class of executed instruction. (Count)
system.timingCpu1.exec_context.thread_0.statExecutedInstType::SimdFloatCmp            0      0.00%     83.37% # Class of executed instruction. (Count)
system.timingCpu1.exec_context.thread_0.statExecutedInstType::SimdFloatCvt            0      0.00%     83.37% # Class of executed instruction. (Count)
system.timingCpu1.exec_context.thread_0.statExecutedInstType::SimdFloatDiv            0      0.00%     83.37% # Class of executed instruction. (Count)
system.timingCpu1.exec_context.thread_0.statExecutedInstType::SimdFloatMisc            0      0.00%     83.37% # Class of executed instruction. (Count)
system.timingCpu1.exec_context.thread_0.statExecutedInstType::SimdFloatMult            0      0.00%     83.37% # Class of executed instruction. (Count)
system.timingCpu1.exec_context.thread_0.statExecutedInstType::SimdFloatMultAcc            0      0.00%     83.37% # Class of executed instruction. (Count)
system.timingCpu1.exec_context.thread_0.statExecutedInstType::SimdFloatSqrt            0      0.00%     83.37% # Class of executed instruction. (Count)
system.timingCpu1.exec_context.thread_0.statExecutedInstType::SimdReduceAdd            0      0.00%     83.37% # Class of executed instruction. (Count)
system.timingCpu1.exec_context.thread_0.statExecutedInstType::SimdReduceAlu            0      0.00%     83.37% # Class of executed instruction. (Count)
system.timingCpu1.exec_context.thread_0.statExecutedInstType::SimdReduceCmp            0      0.00%     83.37% # Class of executed instruction. (Count)
system.timingCpu1.exec_context.thread_0.statExecutedInstType::SimdFloatReduceAdd            0      0.00%     83.37% # Class of executed instruction. (Count)
system.timingCpu1.exec_context.thread_0.statExecutedInstType::SimdFloatReduceCmp            0      0.00%     83.37% # Class of executed instruction. (Count)
system.timingCpu1.exec_context.thread_0.statExecutedInstType::SimdAes            0      0.00%     83.37% # Class of executed instruction. (Count)
system.timingCpu1.exec_context.thread_0.statExecutedInstType::SimdAesMix            0      0.00%     83.37% # Class of executed instruction. (Count)
system.timingCpu1.exec_context.thread_0.statExecutedInstType::SimdSha1Hash            0      0.00%     83.37% # Class of executed instruction. (Count)
system.timingCpu1.exec_context.thread_0.statExecutedInstType::SimdSha1Hash2            0      0.00%     83.37% # Class of executed instruction. (Count)
system.timingCpu1.exec_context.thread_0.statExecutedInstType::SimdSha256Hash            0      0.00%     83.37% # Class of executed instruction. (Count)
system.timingCpu1.exec_context.thread_0.statExecutedInstType::SimdSha256Hash2            0      0.00%     83.37% # Class of executed instruction. (Count)
system.timingCpu1.exec_context.thread_0.statExecutedInstType::SimdShaSigma2            0      0.00%     83.37% # Class of executed instruction. (Count)
system.timingCpu1.exec_context.thread_0.statExecutedInstType::SimdShaSigma3            0      0.00%     83.37% # Class of executed instruction. (Count)
system.timingCpu1.exec_context.thread_0.statExecutedInstType::SimdPredAlu            0      0.00%     83.37% # Class of executed instruction. (Count)
system.timingCpu1.exec_context.thread_0.statExecutedInstType::MemRead     10959094     14.72%     98.09% # Class of executed instruction. (Count)
system.timingCpu1.exec_context.thread_0.statExecutedInstType::MemWrite      1411126      1.90%     99.98% # Class of executed instruction. (Count)
system.timingCpu1.exec_context.thread_0.statExecutedInstType::FloatMemRead         5503      0.01%     99.99% # Class of executed instruction. (Count)
system.timingCpu1.exec_context.thread_0.statExecutedInstType::FloatMemWrite         5664      0.01%    100.00% # Class of executed instruction. (Count)
system.timingCpu1.exec_context.thread_0.statExecutedInstType::IprAccess            0      0.00%    100.00% # Class of executed instruction. (Count)
system.timingCpu1.exec_context.thread_0.statExecutedInstType::InstPrefetch            0      0.00%    100.00% # Class of executed instruction. (Count)
system.timingCpu1.exec_context.thread_0.statExecutedInstType::total     74441967                       # Class of executed instruction. (Count)
system.timingCpu1.mmu.dtb.rdAccesses         10971518                       # TLB accesses on read requests (Count)
system.timingCpu1.mmu.dtb.wrAccesses          1416638                       # TLB accesses on write requests (Count)
system.timingCpu1.mmu.dtb.rdMisses               7989                       # TLB misses on read requests (Count)
system.timingCpu1.mmu.dtb.wrMisses                433                       # TLB misses on write requests (Count)
system.timingCpu1.mmu.dtb.walker.power_state.pwrStateResidencyTicks::UNDEFINED 160820810563251                       # Cumulative time (in ticks) in various power states (Tick)
system.timingCpu1.mmu.itb.rdAccesses                0                       # TLB accesses on read requests (Count)
system.timingCpu1.mmu.itb.wrAccesses         55593711                       # TLB accesses on write requests (Count)
system.timingCpu1.mmu.itb.rdMisses                  0                       # TLB misses on read requests (Count)
system.timingCpu1.mmu.itb.wrMisses                590                       # TLB misses on write requests (Count)
system.timingCpu1.mmu.itb.walker.power_state.pwrStateResidencyTicks::UNDEFINED 160820810563251                       # Cumulative time (in ticks) in various power states (Tick)
system.timingCpu1.power_state.numTransitions            4                       # Number of power state transitions (Count)
system.timingCpu1.power_state.ticksClkGated::samples            2                       # Distribution of time spent in the clock gated state (Tick)
system.timingCpu1.power_state.ticksClkGated::mean    431876375                       # Distribution of time spent in the clock gated state (Tick)
system.timingCpu1.power_state.ticksClkGated::stdev 510761082.497268                       # Distribution of time spent in the clock gated state (Tick)
system.timingCpu1.power_state.ticksClkGated::1000-5e+10            2    100.00%    100.00% # Distribution of time spent in the clock gated state (Tick)
system.timingCpu1.power_state.ticksClkGated::min_value     70713750                       # Distribution of time spent in the clock gated state (Tick)
system.timingCpu1.power_state.ticksClkGated::max_value    793039000                       # Distribution of time spent in the clock gated state (Tick)
system.timingCpu1.power_state.ticksClkGated::total            2                       # Distribution of time spent in the clock gated state (Tick)
system.timingCpu1.power_state.pwrStateResidencyTicks::ON   1017524251                       # Cumulative time (in ticks) in various power states (Tick)
system.timingCpu1.power_state.pwrStateResidencyTicks::CLK_GATED    863752750                       # Cumulative time (in ticks) in various power states (Tick)
system.timingCpu1.power_state.pwrStateResidencyTicks::OFF 160818929286250                       # Cumulative time (in ticks) in various power states (Tick)
system.timingCpu1.thread_0.numInsts                 0                       # Number of Instructions committed (Count)
system.timingCpu1.thread_0.numOps                   0                       # Number of Ops committed (Count)
system.timingCpu1.thread_0.numMemRefs               0                       # Number of Memory References (Count)
system.workload.inst.arm                            0                       # number of arm instructions executed (Count)
system.workload.inst.quiesce                        0                       # number of quiesce instructions executed (Count)

---------- End Simulation Statistics   ----------
