
---------- Begin Simulation Statistics ----------
simSeconds                                   0.020000                       # Number of seconds simulated (Second)
simTicks                                  20000021000                       # Number of ticks simulated (Tick)
finalTick                                 20000021000                       # Number of ticks from beginning of simulation (restored from checkpoints and never reset) (Tick)
simFreq                                  1000000000000                       # The number of ticks per simulated second ((Tick/Second))
hostSeconds                                    116.98                       # Real time elapsed on the host (Second)
hostTickRate                                170967983                       # The number of ticks simulated per host second (ticks/s) ((Tick/Second))
hostMemory                                    3253828                       # Number of bytes of host memory used (Byte)
system.clk_domain.clock                           250                       # Clock period in ticks (Tick)
system.clk_domain.voltage_domain.voltage            1                       # Voltage in Volts (Volt)
system.far_mem_ctrl.avgPriority_writebacks::samples   3547744.00                       # Average QoS priority value for accepted requests (Count)
system.far_mem_ctrl.priorityMinLatency   0.000000017492                       # per QoS priority minimum request to response latency (Second)
system.far_mem_ctrl.priorityMaxLatency   0.000002617426                       # per QoS priority maximum request to response latency (Second)
system.far_mem_ctrl.numReadWriteTurnArounds            0                       # Number of turnarounds from READ to WRITE (Count)
system.far_mem_ctrl.numWriteReadTurnArounds            0                       # Number of turnarounds from WRITE to READ (Count)
system.far_mem_ctrl.numStayReadState          3675871                       # Number of times bus staying in READ state (Count)
system.far_mem_ctrl.numStayWriteState               0                       # Number of times bus staying in WRITE state (Count)
system.far_mem_ctrl.readReqs                  3547744                       # Number of read requests accepted (Count)
system.far_mem_ctrl.writeReqs                       0                       # Number of write requests accepted (Count)
system.far_mem_ctrl.readBursts                3547744                       # Number of controller read bursts, including those serviced by the write queue (Count)
system.far_mem_ctrl.writeBursts                     0                       # Number of controller write bursts, including those merged in the write queue (Count)
system.far_mem_ctrl.servicedByWrQ                   0                       # Number of controller read bursts serviced by the write queue (Count)
system.far_mem_ctrl.mergedWrBursts                  0                       # Number of controller write bursts merged with an existing one (Count)
system.far_mem_ctrl.avgRdQLen                   39.55                       # Average read queue length when enqueuing ((Count/Tick))
system.far_mem_ctrl.avgWrQLen                    0.00                       # Average write queue length when enqueuing ((Count/Tick))
system.far_mem_ctrl.numRdRetry                2181962                       # Number of times read queue was full causing retry (Count)
system.far_mem_ctrl.numWrRetry                      0                       # Number of times write queue was full causing retry (Count)
system.far_mem_ctrl.readPktSize::0                  0                       # Read request sizes (log2) (Count)
system.far_mem_ctrl.readPktSize::1                  0                       # Read request sizes (log2) (Count)
system.far_mem_ctrl.readPktSize::2                  0                       # Read request sizes (log2) (Count)
system.far_mem_ctrl.readPktSize::3                  0                       # Read request sizes (log2) (Count)
system.far_mem_ctrl.readPktSize::4                  0                       # Read request sizes (log2) (Count)
system.far_mem_ctrl.readPktSize::5                  0                       # Read request sizes (log2) (Count)
system.far_mem_ctrl.readPktSize::6            3547744                       # Read request sizes (log2) (Count)
system.far_mem_ctrl.writePktSize::0                 0                       # Write request sizes (log2) (Count)
system.far_mem_ctrl.writePktSize::1                 0                       # Write request sizes (log2) (Count)
system.far_mem_ctrl.writePktSize::2                 0                       # Write request sizes (log2) (Count)
system.far_mem_ctrl.writePktSize::3                 0                       # Write request sizes (log2) (Count)
system.far_mem_ctrl.writePktSize::4                 0                       # Write request sizes (log2) (Count)
system.far_mem_ctrl.writePktSize::5                 0                       # Write request sizes (log2) (Count)
system.far_mem_ctrl.writePktSize::6                 0                       # Write request sizes (log2) (Count)
system.far_mem_ctrl.rdQLenPdf::0                14185                       # What read queue length does an incoming req see (Count)
system.far_mem_ctrl.rdQLenPdf::1                17047                       # What read queue length does an incoming req see (Count)
system.far_mem_ctrl.rdQLenPdf::2                18338                       # What read queue length does an incoming req see (Count)
system.far_mem_ctrl.rdQLenPdf::3                19649                       # What read queue length does an incoming req see (Count)
system.far_mem_ctrl.rdQLenPdf::4                21188                       # What read queue length does an incoming req see (Count)
system.far_mem_ctrl.rdQLenPdf::5                22405                       # What read queue length does an incoming req see (Count)
system.far_mem_ctrl.rdQLenPdf::6                23796                       # What read queue length does an incoming req see (Count)
system.far_mem_ctrl.rdQLenPdf::7                25468                       # What read queue length does an incoming req see (Count)
system.far_mem_ctrl.rdQLenPdf::8                27053                       # What read queue length does an incoming req see (Count)
system.far_mem_ctrl.rdQLenPdf::9                27993                       # What read queue length does an incoming req see (Count)
system.far_mem_ctrl.rdQLenPdf::10               35962                       # What read queue length does an incoming req see (Count)
system.far_mem_ctrl.rdQLenPdf::11               90466                       # What read queue length does an incoming req see (Count)
system.far_mem_ctrl.rdQLenPdf::12               71109                       # What read queue length does an incoming req see (Count)
system.far_mem_ctrl.rdQLenPdf::13               63120                       # What read queue length does an incoming req see (Count)
system.far_mem_ctrl.rdQLenPdf::14               82434                       # What read queue length does an incoming req see (Count)
system.far_mem_ctrl.rdQLenPdf::15               99871                       # What read queue length does an incoming req see (Count)
system.far_mem_ctrl.rdQLenPdf::16              104537                       # What read queue length does an incoming req see (Count)
system.far_mem_ctrl.rdQLenPdf::17               96620                       # What read queue length does an incoming req see (Count)
system.far_mem_ctrl.rdQLenPdf::18               82576                       # What read queue length does an incoming req see (Count)
system.far_mem_ctrl.rdQLenPdf::19               66861                       # What read queue length does an incoming req see (Count)
system.far_mem_ctrl.rdQLenPdf::20               52622                       # What read queue length does an incoming req see (Count)
system.far_mem_ctrl.rdQLenPdf::21               38401                       # What read queue length does an incoming req see (Count)
system.far_mem_ctrl.rdQLenPdf::22               29454                       # What read queue length does an incoming req see (Count)
system.far_mem_ctrl.rdQLenPdf::23               27328                       # What read queue length does an incoming req see (Count)
system.far_mem_ctrl.rdQLenPdf::24               26746                       # What read queue length does an incoming req see (Count)
system.far_mem_ctrl.rdQLenPdf::25               26822                       # What read queue length does an incoming req see (Count)
system.far_mem_ctrl.rdQLenPdf::26               26952                       # What read queue length does an incoming req see (Count)
system.far_mem_ctrl.rdQLenPdf::27               27207                       # What read queue length does an incoming req see (Count)
system.far_mem_ctrl.rdQLenPdf::28               27278                       # What read queue length does an incoming req see (Count)
system.far_mem_ctrl.rdQLenPdf::29               27723                       # What read queue length does an incoming req see (Count)
system.far_mem_ctrl.rdQLenPdf::30               27909                       # What read queue length does an incoming req see (Count)
system.far_mem_ctrl.rdQLenPdf::31               27985                       # What read queue length does an incoming req see (Count)
system.far_mem_ctrl.rdQLenPdf::32               28230                       # What read queue length does an incoming req see (Count)
system.far_mem_ctrl.rdQLenPdf::33               28185                       # What read queue length does an incoming req see (Count)
system.far_mem_ctrl.rdQLenPdf::34               28325                       # What read queue length does an incoming req see (Count)
system.far_mem_ctrl.rdQLenPdf::35               28480                       # What read queue length does an incoming req see (Count)
system.far_mem_ctrl.rdQLenPdf::36               28509                       # What read queue length does an incoming req see (Count)
system.far_mem_ctrl.rdQLenPdf::37               28615                       # What read queue length does an incoming req see (Count)
system.far_mem_ctrl.rdQLenPdf::38               28354                       # What read queue length does an incoming req see (Count)
system.far_mem_ctrl.rdQLenPdf::39               28284                       # What read queue length does an incoming req see (Count)
system.far_mem_ctrl.rdQLenPdf::40               28277                       # What read queue length does an incoming req see (Count)
system.far_mem_ctrl.rdQLenPdf::41               28129                       # What read queue length does an incoming req see (Count)
system.far_mem_ctrl.rdQLenPdf::42               28374                       # What read queue length does an incoming req see (Count)
system.far_mem_ctrl.rdQLenPdf::43               28465                       # What read queue length does an incoming req see (Count)
system.far_mem_ctrl.rdQLenPdf::44               28283                       # What read queue length does an incoming req see (Count)
system.far_mem_ctrl.rdQLenPdf::45               28574                       # What read queue length does an incoming req see (Count)
system.far_mem_ctrl.rdQLenPdf::46               28514                       # What read queue length does an incoming req see (Count)
system.far_mem_ctrl.rdQLenPdf::47               28509                       # What read queue length does an incoming req see (Count)
system.far_mem_ctrl.rdQLenPdf::48               28517                       # What read queue length does an incoming req see (Count)
system.far_mem_ctrl.rdQLenPdf::49               28256                       # What read queue length does an incoming req see (Count)
system.far_mem_ctrl.rdQLenPdf::50               28214                       # What read queue length does an incoming req see (Count)
system.far_mem_ctrl.rdQLenPdf::51               28224                       # What read queue length does an incoming req see (Count)
system.far_mem_ctrl.rdQLenPdf::52               28352                       # What read queue length does an incoming req see (Count)
system.far_mem_ctrl.rdQLenPdf::53               28019                       # What read queue length does an incoming req see (Count)
system.far_mem_ctrl.rdQLenPdf::54               27861                       # What read queue length does an incoming req see (Count)
system.far_mem_ctrl.rdQLenPdf::55               27794                       # What read queue length does an incoming req see (Count)
system.far_mem_ctrl.rdQLenPdf::56               27935                       # What read queue length does an incoming req see (Count)
system.far_mem_ctrl.rdQLenPdf::57               27688                       # What read queue length does an incoming req see (Count)
system.far_mem_ctrl.rdQLenPdf::58               27436                       # What read queue length does an incoming req see (Count)
system.far_mem_ctrl.rdQLenPdf::59               27787                       # What read queue length does an incoming req see (Count)
system.far_mem_ctrl.rdQLenPdf::60               27619                       # What read queue length does an incoming req see (Count)
system.far_mem_ctrl.rdQLenPdf::61               27703                       # What read queue length does an incoming req see (Count)
system.far_mem_ctrl.rdQLenPdf::62               27443                       # What read queue length does an incoming req see (Count)
system.far_mem_ctrl.rdQLenPdf::63             1297684                       # What read queue length does an incoming req see (Count)
system.far_mem_ctrl.wrQLenPdf::0                    0                       # What write queue length does an incoming req see (Count)
system.far_mem_ctrl.wrQLenPdf::1                    0                       # What write queue length does an incoming req see (Count)
system.far_mem_ctrl.wrQLenPdf::2                    0                       # What write queue length does an incoming req see (Count)
system.far_mem_ctrl.wrQLenPdf::3                    0                       # What write queue length does an incoming req see (Count)
system.far_mem_ctrl.wrQLenPdf::4                    0                       # What write queue length does an incoming req see (Count)
system.far_mem_ctrl.wrQLenPdf::5                    0                       # What write queue length does an incoming req see (Count)
system.far_mem_ctrl.wrQLenPdf::6                    0                       # What write queue length does an incoming req see (Count)
system.far_mem_ctrl.wrQLenPdf::7                    0                       # What write queue length does an incoming req see (Count)
system.far_mem_ctrl.wrQLenPdf::8                    0                       # What write queue length does an incoming req see (Count)
system.far_mem_ctrl.wrQLenPdf::9                    0                       # What write queue length does an incoming req see (Count)
system.far_mem_ctrl.wrQLenPdf::10                   0                       # What write queue length does an incoming req see (Count)
system.far_mem_ctrl.wrQLenPdf::11                   0                       # What write queue length does an incoming req see (Count)
system.far_mem_ctrl.wrQLenPdf::12                   0                       # What write queue length does an incoming req see (Count)
system.far_mem_ctrl.wrQLenPdf::13                   0                       # What write queue length does an incoming req see (Count)
system.far_mem_ctrl.wrQLenPdf::14                   0                       # What write queue length does an incoming req see (Count)
system.far_mem_ctrl.wrQLenPdf::15                   0                       # What write queue length does an incoming req see (Count)
system.far_mem_ctrl.wrQLenPdf::16                   0                       # What write queue length does an incoming req see (Count)
system.far_mem_ctrl.wrQLenPdf::17                   0                       # What write queue length does an incoming req see (Count)
system.far_mem_ctrl.wrQLenPdf::18                   0                       # What write queue length does an incoming req see (Count)
system.far_mem_ctrl.wrQLenPdf::19                   0                       # What write queue length does an incoming req see (Count)
system.far_mem_ctrl.wrQLenPdf::20                   0                       # What write queue length does an incoming req see (Count)
system.far_mem_ctrl.wrQLenPdf::21                   0                       # What write queue length does an incoming req see (Count)
system.far_mem_ctrl.wrQLenPdf::22                   0                       # What write queue length does an incoming req see (Count)
system.far_mem_ctrl.wrQLenPdf::23                   0                       # What write queue length does an incoming req see (Count)
system.far_mem_ctrl.wrQLenPdf::24                   0                       # What write queue length does an incoming req see (Count)
system.far_mem_ctrl.wrQLenPdf::25                   0                       # What write queue length does an incoming req see (Count)
system.far_mem_ctrl.wrQLenPdf::26                   0                       # What write queue length does an incoming req see (Count)
system.far_mem_ctrl.wrQLenPdf::27                   0                       # What write queue length does an incoming req see (Count)
system.far_mem_ctrl.wrQLenPdf::28                   0                       # What write queue length does an incoming req see (Count)
system.far_mem_ctrl.wrQLenPdf::29                   0                       # What write queue length does an incoming req see (Count)
system.far_mem_ctrl.wrQLenPdf::30                   0                       # What write queue length does an incoming req see (Count)
system.far_mem_ctrl.wrQLenPdf::31                   0                       # What write queue length does an incoming req see (Count)
system.far_mem_ctrl.wrQLenPdf::32                   0                       # What write queue length does an incoming req see (Count)
system.far_mem_ctrl.wrQLenPdf::33                   0                       # What write queue length does an incoming req see (Count)
system.far_mem_ctrl.wrQLenPdf::34                   0                       # What write queue length does an incoming req see (Count)
system.far_mem_ctrl.wrQLenPdf::35                   0                       # What write queue length does an incoming req see (Count)
system.far_mem_ctrl.wrQLenPdf::36                   0                       # What write queue length does an incoming req see (Count)
system.far_mem_ctrl.wrQLenPdf::37                   0                       # What write queue length does an incoming req see (Count)
system.far_mem_ctrl.wrQLenPdf::38                   0                       # What write queue length does an incoming req see (Count)
system.far_mem_ctrl.wrQLenPdf::39                   0                       # What write queue length does an incoming req see (Count)
system.far_mem_ctrl.wrQLenPdf::40                   0                       # What write queue length does an incoming req see (Count)
system.far_mem_ctrl.wrQLenPdf::41                   0                       # What write queue length does an incoming req see (Count)
system.far_mem_ctrl.wrQLenPdf::42                   0                       # What write queue length does an incoming req see (Count)
system.far_mem_ctrl.wrQLenPdf::43                   0                       # What write queue length does an incoming req see (Count)
system.far_mem_ctrl.wrQLenPdf::44                   0                       # What write queue length does an incoming req see (Count)
system.far_mem_ctrl.wrQLenPdf::45                   0                       # What write queue length does an incoming req see (Count)
system.far_mem_ctrl.wrQLenPdf::46                   0                       # What write queue length does an incoming req see (Count)
system.far_mem_ctrl.wrQLenPdf::47                   0                       # What write queue length does an incoming req see (Count)
system.far_mem_ctrl.wrQLenPdf::48                   0                       # What write queue length does an incoming req see (Count)
system.far_mem_ctrl.wrQLenPdf::49                   0                       # What write queue length does an incoming req see (Count)
system.far_mem_ctrl.wrQLenPdf::50                   0                       # What write queue length does an incoming req see (Count)
system.far_mem_ctrl.wrQLenPdf::51                   0                       # What write queue length does an incoming req see (Count)
system.far_mem_ctrl.wrQLenPdf::52                   0                       # What write queue length does an incoming req see (Count)
system.far_mem_ctrl.wrQLenPdf::53                   0                       # What write queue length does an incoming req see (Count)
system.far_mem_ctrl.wrQLenPdf::54                   0                       # What write queue length does an incoming req see (Count)
system.far_mem_ctrl.wrQLenPdf::55                   0                       # What write queue length does an incoming req see (Count)
system.far_mem_ctrl.wrQLenPdf::56                   0                       # What write queue length does an incoming req see (Count)
system.far_mem_ctrl.wrQLenPdf::57                   0                       # What write queue length does an incoming req see (Count)
system.far_mem_ctrl.wrQLenPdf::58                   0                       # What write queue length does an incoming req see (Count)
system.far_mem_ctrl.wrQLenPdf::59                   0                       # What write queue length does an incoming req see (Count)
system.far_mem_ctrl.wrQLenPdf::60                   0                       # What write queue length does an incoming req see (Count)
system.far_mem_ctrl.wrQLenPdf::61                   0                       # What write queue length does an incoming req see (Count)
system.far_mem_ctrl.wrQLenPdf::62                   0                       # What write queue length does an incoming req see (Count)
system.far_mem_ctrl.wrQLenPdf::63                   0                       # What write queue length does an incoming req see (Count)
system.far_mem_ctrl.wrQLenPdf::64                   0                       # What write queue length does an incoming req see (Count)
system.far_mem_ctrl.wrQLenPdf::65                   0                       # What write queue length does an incoming req see (Count)
system.far_mem_ctrl.wrQLenPdf::66                   0                       # What write queue length does an incoming req see (Count)
system.far_mem_ctrl.wrQLenPdf::67                   0                       # What write queue length does an incoming req see (Count)
system.far_mem_ctrl.wrQLenPdf::68                   0                       # What write queue length does an incoming req see (Count)
system.far_mem_ctrl.wrQLenPdf::69                   0                       # What write queue length does an incoming req see (Count)
system.far_mem_ctrl.wrQLenPdf::70                   0                       # What write queue length does an incoming req see (Count)
system.far_mem_ctrl.wrQLenPdf::71                   0                       # What write queue length does an incoming req see (Count)
system.far_mem_ctrl.wrQLenPdf::72                   0                       # What write queue length does an incoming req see (Count)
system.far_mem_ctrl.wrQLenPdf::73                   0                       # What write queue length does an incoming req see (Count)
system.far_mem_ctrl.wrQLenPdf::74                   0                       # What write queue length does an incoming req see (Count)
system.far_mem_ctrl.wrQLenPdf::75                   0                       # What write queue length does an incoming req see (Count)
system.far_mem_ctrl.wrQLenPdf::76                   0                       # What write queue length does an incoming req see (Count)
system.far_mem_ctrl.wrQLenPdf::77                   0                       # What write queue length does an incoming req see (Count)
system.far_mem_ctrl.wrQLenPdf::78                   0                       # What write queue length does an incoming req see (Count)
system.far_mem_ctrl.wrQLenPdf::79                   0                       # What write queue length does an incoming req see (Count)
system.far_mem_ctrl.wrQLenPdf::80                   0                       # What write queue length does an incoming req see (Count)
system.far_mem_ctrl.wrQLenPdf::81                   0                       # What write queue length does an incoming req see (Count)
system.far_mem_ctrl.wrQLenPdf::82                   0                       # What write queue length does an incoming req see (Count)
system.far_mem_ctrl.wrQLenPdf::83                   0                       # What write queue length does an incoming req see (Count)
system.far_mem_ctrl.wrQLenPdf::84                   0                       # What write queue length does an incoming req see (Count)
system.far_mem_ctrl.wrQLenPdf::85                   0                       # What write queue length does an incoming req see (Count)
system.far_mem_ctrl.wrQLenPdf::86                   0                       # What write queue length does an incoming req see (Count)
system.far_mem_ctrl.wrQLenPdf::87                   0                       # What write queue length does an incoming req see (Count)
system.far_mem_ctrl.wrQLenPdf::88                   0                       # What write queue length does an incoming req see (Count)
system.far_mem_ctrl.wrQLenPdf::89                   0                       # What write queue length does an incoming req see (Count)
system.far_mem_ctrl.wrQLenPdf::90                   0                       # What write queue length does an incoming req see (Count)
system.far_mem_ctrl.wrQLenPdf::91                   0                       # What write queue length does an incoming req see (Count)
system.far_mem_ctrl.wrQLenPdf::92                   0                       # What write queue length does an incoming req see (Count)
system.far_mem_ctrl.wrQLenPdf::93                   0                       # What write queue length does an incoming req see (Count)
system.far_mem_ctrl.wrQLenPdf::94                   0                       # What write queue length does an incoming req see (Count)
system.far_mem_ctrl.wrQLenPdf::95                   0                       # What write queue length does an incoming req see (Count)
system.far_mem_ctrl.wrQLenPdf::96                   0                       # What write queue length does an incoming req see (Count)
system.far_mem_ctrl.wrQLenPdf::97                   0                       # What write queue length does an incoming req see (Count)
system.far_mem_ctrl.wrQLenPdf::98                   0                       # What write queue length does an incoming req see (Count)
system.far_mem_ctrl.wrQLenPdf::99                   0                       # What write queue length does an incoming req see (Count)
system.far_mem_ctrl.wrQLenPdf::100                  0                       # What write queue length does an incoming req see (Count)
system.far_mem_ctrl.wrQLenPdf::101                  0                       # What write queue length does an incoming req see (Count)
system.far_mem_ctrl.wrQLenPdf::102                  0                       # What write queue length does an incoming req see (Count)
system.far_mem_ctrl.wrQLenPdf::103                  0                       # What write queue length does an incoming req see (Count)
system.far_mem_ctrl.wrQLenPdf::104                  0                       # What write queue length does an incoming req see (Count)
system.far_mem_ctrl.wrQLenPdf::105                  0                       # What write queue length does an incoming req see (Count)
system.far_mem_ctrl.wrQLenPdf::106                  0                       # What write queue length does an incoming req see (Count)
system.far_mem_ctrl.wrQLenPdf::107                  0                       # What write queue length does an incoming req see (Count)
system.far_mem_ctrl.wrQLenPdf::108                  0                       # What write queue length does an incoming req see (Count)
system.far_mem_ctrl.wrQLenPdf::109                  0                       # What write queue length does an incoming req see (Count)
system.far_mem_ctrl.wrQLenPdf::110                  0                       # What write queue length does an incoming req see (Count)
system.far_mem_ctrl.wrQLenPdf::111                  0                       # What write queue length does an incoming req see (Count)
system.far_mem_ctrl.wrQLenPdf::112                  0                       # What write queue length does an incoming req see (Count)
system.far_mem_ctrl.wrQLenPdf::113                  0                       # What write queue length does an incoming req see (Count)
system.far_mem_ctrl.wrQLenPdf::114                  0                       # What write queue length does an incoming req see (Count)
system.far_mem_ctrl.wrQLenPdf::115                  0                       # What write queue length does an incoming req see (Count)
system.far_mem_ctrl.wrQLenPdf::116                  0                       # What write queue length does an incoming req see (Count)
system.far_mem_ctrl.wrQLenPdf::117                  0                       # What write queue length does an incoming req see (Count)
system.far_mem_ctrl.wrQLenPdf::118                  0                       # What write queue length does an incoming req see (Count)
system.far_mem_ctrl.wrQLenPdf::119                  0                       # What write queue length does an incoming req see (Count)
system.far_mem_ctrl.wrQLenPdf::120                  0                       # What write queue length does an incoming req see (Count)
system.far_mem_ctrl.wrQLenPdf::121                  0                       # What write queue length does an incoming req see (Count)
system.far_mem_ctrl.wrQLenPdf::122                  0                       # What write queue length does an incoming req see (Count)
system.far_mem_ctrl.wrQLenPdf::123                  0                       # What write queue length does an incoming req see (Count)
system.far_mem_ctrl.wrQLenPdf::124                  0                       # What write queue length does an incoming req see (Count)
system.far_mem_ctrl.wrQLenPdf::125                  0                       # What write queue length does an incoming req see (Count)
system.far_mem_ctrl.wrQLenPdf::126                  0                       # What write queue length does an incoming req see (Count)
system.far_mem_ctrl.wrQLenPdf::127                  0                       # What write queue length does an incoming req see (Count)
system.far_mem_ctrl.bytesReadWrQ                    0                       # Total number of bytes read from write queue (Byte)
system.far_mem_ctrl.bytesReadSys            227055616                       # Total read bytes from the system interface side (Byte)
system.far_mem_ctrl.bytesWrittenSys                 0                       # Total written bytes from the system interface side (Byte)
system.far_mem_ctrl.avgRdBWSys           11352768879.59267616                       # Average system read bandwidth in Byte/s ((Byte/Second))
system.far_mem_ctrl.avgWrBWSys             0.00000000                       # Average system write bandwidth in Byte/s ((Byte/Second))
system.far_mem_ctrl.totGap                19999944000                       # Total gap between requests (Tick)
system.far_mem_ctrl.avgGap                    5637.37                       # Average gap between requests ((Tick/Count))
system.far_mem_ctrl.requestorReadBytes::writebacks    227054080                       # Per-requestor bytes read from memory (Byte)
system.far_mem_ctrl.requestorReadRate::writebacks 11352692079.673316955566                       # Per-requestor bytes read from memory rate ((Byte/Second))
system.far_mem_ctrl.requestorReadAccesses::writebacks      3547744                       # Per-requestor read serviced memory accesses (Count)
system.far_mem_ctrl.requestorReadTotalLat::writebacks 567203496731                       # Per-requestor read total memory access latency (Tick)
system.far_mem_ctrl.requestorReadAvgLat::writebacks    159877.23                       # Per-requestor read average memory access latency ((Tick/Count))
system.far_mem_ctrl.dram.bytesRead::writebacks    227053184                       # Number of bytes read from this memory (Byte)
system.far_mem_ctrl.dram.bytesRead::total    227053184                       # Number of bytes read from this memory (Byte)
system.far_mem_ctrl.dram.numReads::writebacks      3547706                       # Number of read requests responded to by this memory (Count)
system.far_mem_ctrl.dram.numReads::total      3547706                       # Number of read requests responded to by this memory (Count)
system.far_mem_ctrl.dram.bwRead::writebacks  11352647280                       # Total read bandwidth from this memory ((Byte/Second))
system.far_mem_ctrl.dram.bwRead::total    11352647280                       # Total read bandwidth from this memory ((Byte/Second))
system.far_mem_ctrl.dram.bwTotal::writebacks  11352647280                       # Total bandwidth to/from this memory ((Byte/Second))
system.far_mem_ctrl.dram.bwTotal::total   11352647280                       # Total bandwidth to/from this memory ((Byte/Second))
system.far_mem_ctrl.dram.readBursts           3547720                       # Number of DRAM read bursts (Count)
system.far_mem_ctrl.dram.writeBursts                0                       # Number of DRAM write bursts (Count)
system.far_mem_ctrl.dram.perBankRdBursts::0       111478                       # Per bank write bursts (Count)
system.far_mem_ctrl.dram.perBankRdBursts::1       110825                       # Per bank write bursts (Count)
system.far_mem_ctrl.dram.perBankRdBursts::2       111080                       # Per bank write bursts (Count)
system.far_mem_ctrl.dram.perBankRdBursts::3       111177                       # Per bank write bursts (Count)
system.far_mem_ctrl.dram.perBankRdBursts::4       110977                       # Per bank write bursts (Count)
system.far_mem_ctrl.dram.perBankRdBursts::5       111033                       # Per bank write bursts (Count)
system.far_mem_ctrl.dram.perBankRdBursts::6       110506                       # Per bank write bursts (Count)
system.far_mem_ctrl.dram.perBankRdBursts::7       110516                       # Per bank write bursts (Count)
system.far_mem_ctrl.dram.perBankRdBursts::8       110674                       # Per bank write bursts (Count)
system.far_mem_ctrl.dram.perBankRdBursts::9       110557                       # Per bank write bursts (Count)
system.far_mem_ctrl.dram.perBankRdBursts::10       110686                       # Per bank write bursts (Count)
system.far_mem_ctrl.dram.perBankRdBursts::11       110476                       # Per bank write bursts (Count)
system.far_mem_ctrl.dram.perBankRdBursts::12       111035                       # Per bank write bursts (Count)
system.far_mem_ctrl.dram.perBankRdBursts::13       110709                       # Per bank write bursts (Count)
system.far_mem_ctrl.dram.perBankRdBursts::14       110485                       # Per bank write bursts (Count)
system.far_mem_ctrl.dram.perBankRdBursts::15       111388                       # Per bank write bursts (Count)
system.far_mem_ctrl.dram.perBankRdBursts::16       110834                       # Per bank write bursts (Count)
system.far_mem_ctrl.dram.perBankRdBursts::17       110993                       # Per bank write bursts (Count)
system.far_mem_ctrl.dram.perBankRdBursts::18       110714                       # Per bank write bursts (Count)
system.far_mem_ctrl.dram.perBankRdBursts::19       110719                       # Per bank write bursts (Count)
system.far_mem_ctrl.dram.perBankRdBursts::20       111029                       # Per bank write bursts (Count)
system.far_mem_ctrl.dram.perBankRdBursts::21       110695                       # Per bank write bursts (Count)
system.far_mem_ctrl.dram.perBankRdBursts::22       111285                       # Per bank write bursts (Count)
system.far_mem_ctrl.dram.perBankRdBursts::23       111053                       # Per bank write bursts (Count)
system.far_mem_ctrl.dram.perBankRdBursts::24       110607                       # Per bank write bursts (Count)
system.far_mem_ctrl.dram.perBankRdBursts::25       110716                       # Per bank write bursts (Count)
system.far_mem_ctrl.dram.perBankRdBursts::26       110360                       # Per bank write bursts (Count)
system.far_mem_ctrl.dram.perBankRdBursts::27       111078                       # Per bank write bursts (Count)
system.far_mem_ctrl.dram.perBankRdBursts::28       111049                       # Per bank write bursts (Count)
system.far_mem_ctrl.dram.perBankRdBursts::29       110953                       # Per bank write bursts (Count)
system.far_mem_ctrl.dram.perBankRdBursts::30       110714                       # Per bank write bursts (Count)
system.far_mem_ctrl.dram.perBankRdBursts::31       111319                       # Per bank write bursts (Count)
system.far_mem_ctrl.dram.perBankWrBursts::0            0                       # Per bank write bursts (Count)
system.far_mem_ctrl.dram.perBankWrBursts::1            0                       # Per bank write bursts (Count)
system.far_mem_ctrl.dram.perBankWrBursts::2            0                       # Per bank write bursts (Count)
system.far_mem_ctrl.dram.perBankWrBursts::3            0                       # Per bank write bursts (Count)
system.far_mem_ctrl.dram.perBankWrBursts::4            0                       # Per bank write bursts (Count)
system.far_mem_ctrl.dram.perBankWrBursts::5            0                       # Per bank write bursts (Count)
system.far_mem_ctrl.dram.perBankWrBursts::6            0                       # Per bank write bursts (Count)
system.far_mem_ctrl.dram.perBankWrBursts::7            0                       # Per bank write bursts (Count)
system.far_mem_ctrl.dram.perBankWrBursts::8            0                       # Per bank write bursts (Count)
system.far_mem_ctrl.dram.perBankWrBursts::9            0                       # Per bank write bursts (Count)
system.far_mem_ctrl.dram.perBankWrBursts::10            0                       # Per bank write bursts (Count)
system.far_mem_ctrl.dram.perBankWrBursts::11            0                       # Per bank write bursts (Count)
system.far_mem_ctrl.dram.perBankWrBursts::12            0                       # Per bank write bursts (Count)
system.far_mem_ctrl.dram.perBankWrBursts::13            0                       # Per bank write bursts (Count)
system.far_mem_ctrl.dram.perBankWrBursts::14            0                       # Per bank write bursts (Count)
system.far_mem_ctrl.dram.perBankWrBursts::15            0                       # Per bank write bursts (Count)
system.far_mem_ctrl.dram.perBankWrBursts::16            0                       # Per bank write bursts (Count)
system.far_mem_ctrl.dram.perBankWrBursts::17            0                       # Per bank write bursts (Count)
system.far_mem_ctrl.dram.perBankWrBursts::18            0                       # Per bank write bursts (Count)
system.far_mem_ctrl.dram.perBankWrBursts::19            0                       # Per bank write bursts (Count)
system.far_mem_ctrl.dram.perBankWrBursts::20            0                       # Per bank write bursts (Count)
system.far_mem_ctrl.dram.perBankWrBursts::21            0                       # Per bank write bursts (Count)
system.far_mem_ctrl.dram.perBankWrBursts::22            0                       # Per bank write bursts (Count)
system.far_mem_ctrl.dram.perBankWrBursts::23            0                       # Per bank write bursts (Count)
system.far_mem_ctrl.dram.perBankWrBursts::24            0                       # Per bank write bursts (Count)
system.far_mem_ctrl.dram.perBankWrBursts::25            0                       # Per bank write bursts (Count)
system.far_mem_ctrl.dram.perBankWrBursts::26            0                       # Per bank write bursts (Count)
system.far_mem_ctrl.dram.perBankWrBursts::27            0                       # Per bank write bursts (Count)
system.far_mem_ctrl.dram.perBankWrBursts::28            0                       # Per bank write bursts (Count)
system.far_mem_ctrl.dram.perBankWrBursts::29            0                       # Per bank write bursts (Count)
system.far_mem_ctrl.dram.perBankWrBursts::30            0                       # Per bank write bursts (Count)
system.far_mem_ctrl.dram.perBankWrBursts::31            0                       # Per bank write bursts (Count)
system.far_mem_ctrl.dram.totQLat         505146778491                       # Total ticks spent queuing (Tick)
system.far_mem_ctrl.dram.totBusLat        11821003040                       # Total ticks spent in databus transfers (Tick)
system.far_mem_ctrl.dram.totMemAccLat    567203496731                       # Total ticks spent from burst creation until serviced by the DRAM (Tick)
system.far_mem_ctrl.dram.avgQLat            142386.32                       # Average queueing delay per DRAM burst ((Tick/Count))
system.far_mem_ctrl.dram.avgBusLat            3332.00                       # Average bus latency per DRAM burst ((Tick/Count))
system.far_mem_ctrl.dram.avgMemAccLat       159878.32                       # Average memory access latency per DRAM burst ((Tick/Count))
system.far_mem_ctrl.dram.readRowHits              448                       # Number of row buffer hits during reads (Count)
system.far_mem_ctrl.dram.writeRowHits               0                       # Number of row buffer hits during writes (Count)
system.far_mem_ctrl.dram.readRowHitRate          0.01                       # Row buffer hit rate for reads (Ratio)
system.far_mem_ctrl.dram.writeRowHitRate          nan                       # Row buffer hit rate for writes (Ratio)
system.far_mem_ctrl.dram.bytesPerActivate::samples      3547254                       # Bytes accessed per row activation (Byte)
system.far_mem_ctrl.dram.bytesPerActivate::mean    64.008083                       # Bytes accessed per row activation (Byte)
system.far_mem_ctrl.dram.bytesPerActivate::gmean    64.005603                       # Bytes accessed per row activation (Byte)
system.far_mem_ctrl.dram.bytesPerActivate::stdev     0.719193                       # Bytes accessed per row activation (Byte)
system.far_mem_ctrl.dram.bytesPerActivate::64-79      3546806     99.99%     99.99% # Bytes accessed per row activation (Byte)
system.far_mem_ctrl.dram.bytesPerActivate::128-143          448      0.01%    100.00% # Bytes accessed per row activation (Byte)
system.far_mem_ctrl.dram.bytesPerActivate::total      3547254                       # Bytes accessed per row activation (Byte)
system.far_mem_ctrl.dram.bytesRead          227054080                       # Total bytes read (Byte)
system.far_mem_ctrl.dram.bytesWritten               0                       # Total bytes written (Byte)
system.far_mem_ctrl.dram.avgRdBW         11352.692080                       # Average DRAM read bandwidth in MiBytes/s ((Byte/Second))
system.far_mem_ctrl.dram.avgWrBW                    0                       # Average DRAM write bandwidth in MiBytes/s ((Byte/Second))
system.far_mem_ctrl.dram.peakBW              19207.00                       # Theoretical peak bandwidth in MiByte/s ((Byte/Second))
system.far_mem_ctrl.dram.busUtil                59.11                       # Data bus utilization in percentage (Ratio)
system.far_mem_ctrl.dram.busUtilRead            59.11                       # Data bus utilization in percentage for reads (Ratio)
system.far_mem_ctrl.dram.busUtilWrite            0.00                       # Data bus utilization in percentage for writes (Ratio)
system.far_mem_ctrl.dram.pageHitRate             0.01                       # Row buffer hit rate, read and write combined (Ratio)
system.far_mem_ctrl.dram.power_state.pwrStateResidencyTicks::UNDEFINED  20000021000                       # Cumulative time (in ticks) in various power states (Tick)
system.far_mem_ctrl.dram.rank0.actEnergy 5530716827.999988                       # Energy for activate commands per rank (pJ) (Joule)
system.far_mem_ctrl.dram.rank0.preEnergy 7352967360.110389                       # Energy for precharge commands per rank (pJ) (Joule)
system.far_mem_ctrl.dram.rank0.readEnergy 7460294032.262392                       # Energy for read commands per rank (pJ) (Joule)
system.far_mem_ctrl.dram.rank0.writeEnergy            0                       # Energy for write commands per rank (pJ) (Joule)
system.far_mem_ctrl.dram.rank0.refreshEnergy 3557649746.649648                       # Energy for refresh commands per rank (pJ) (Joule)
system.far_mem_ctrl.dram.rank0.actBackEnergy 16879046387.716801                       # Energy for active background per rank (pJ) (Joule)
system.far_mem_ctrl.dram.rank0.preBackEnergy 86803440.729599                       # Energy for precharge background per rank (pJ) (Joule)
system.far_mem_ctrl.dram.rank0.actPowerDownEnergy            0                       # Energy for active power-down per rank (pJ) (Joule)
system.far_mem_ctrl.dram.rank0.prePowerDownEnergy            0                       # Energy for precharge power-down per rank (pJ) (Joule)
system.far_mem_ctrl.dram.rank0.selfRefreshEnergy            0                       # Energy for self refresh per rank (pJ) (Joule)
system.far_mem_ctrl.dram.rank0.totalEnergy 40867477795.468842                       # Total energy per rank (pJ) (Joule)
system.far_mem_ctrl.dram.rank0.averagePower  2043.371744                       # Core power per rank (mW) (Watt)
system.far_mem_ctrl.dram.rank0.totalIdleTime            0                       # Total Idle time Per DRAM Rank (Tick)
system.far_mem_ctrl.dram.rank0.pwrStateTime::IDLE     61641817                       # Time in different power states (Tick)
system.far_mem_ctrl.dram.rank0.pwrStateTime::REF    898800000                       # Time in different power states (Tick)
system.far_mem_ctrl.dram.rank0.pwrStateTime::SREF            0                       # Time in different power states (Tick)
system.far_mem_ctrl.dram.rank0.pwrStateTime::PRE_PDN            0                       # Time in different power states (Tick)
system.far_mem_ctrl.dram.rank0.pwrStateTime::ACT  19039579183                       # Time in different power states (Tick)
system.far_mem_ctrl.dram.rank0.pwrStateTime::ACT_PDN            0                       # Time in different power states (Tick)
system.far_mem_ctrl.dram.rank1.actEnergy 5532332341.535997                       # Energy for activate commands per rank (pJ) (Joule)
system.far_mem_ctrl.dram.rank1.preEnergy 7355123457.326400                       # Energy for precharge commands per rank (pJ) (Joule)
system.far_mem_ctrl.dram.rank1.readEnergy 7462502348.582392                       # Energy for read commands per rank (pJ) (Joule)
system.far_mem_ctrl.dram.rank1.writeEnergy            0                       # Energy for write commands per rank (pJ) (Joule)
system.far_mem_ctrl.dram.rank1.refreshEnergy 3557649746.649648                       # Energy for refresh commands per rank (pJ) (Joule)
system.far_mem_ctrl.dram.rank1.actBackEnergy 16879306827.499187                       # Energy for active background per rank (pJ) (Joule)
system.far_mem_ctrl.dram.rank1.preBackEnergy 86603328.806400                       # Energy for precharge background per rank (pJ) (Joule)
system.far_mem_ctrl.dram.rank1.actPowerDownEnergy            0                       # Energy for active power-down per rank (pJ) (Joule)
system.far_mem_ctrl.dram.rank1.prePowerDownEnergy            0                       # Energy for precharge power-down per rank (pJ) (Joule)
system.far_mem_ctrl.dram.rank1.selfRefreshEnergy            0                       # Energy for self refresh per rank (pJ) (Joule)
system.far_mem_ctrl.dram.rank1.totalEnergy 40873518050.400009                       # Total energy per rank (pJ) (Joule)
system.far_mem_ctrl.dram.rank1.averagePower  2043.673757                       # Core power per rank (mW) (Watt)
system.far_mem_ctrl.dram.rank1.totalIdleTime            0                       # Total Idle time Per DRAM Rank (Tick)
system.far_mem_ctrl.dram.rank1.pwrStateTime::IDLE     61264252                       # Time in different power states (Tick)
system.far_mem_ctrl.dram.rank1.pwrStateTime::REF    898800000                       # Time in different power states (Tick)
system.far_mem_ctrl.dram.rank1.pwrStateTime::SREF            0                       # Time in different power states (Tick)
system.far_mem_ctrl.dram.rank1.pwrStateTime::PRE_PDN            0                       # Time in different power states (Tick)
system.far_mem_ctrl.dram.rank1.pwrStateTime::ACT  19039956748                       # Time in different power states (Tick)
system.far_mem_ctrl.dram.rank1.pwrStateTime::ACT_PDN            0                       # Time in different power states (Tick)
system.far_mem_ctrl.power_state.pwrStateResidencyTicks::UNDEFINED  20000021000                       # Cumulative time (in ticks) in various power states (Tick)
system.generator.numSuppressed                      0                       # Number of suppressed packets to non-memory space (Count)
system.generator.numPackets                   3547807                       # Number of packets generated (Count)
system.generator.numRetries                   3545939                       # Number of retries (Count)
system.generator.retryTicks               19996885455                       # Time spent waiting due to back-pressure (Tick)
system.generator.bytesRead                  227052288                       # Number of bytes read (Byte)
system.generator.bytesWritten                       0                       # Number of bytes written (Byte)
system.generator.totalReadLatency        4020186413597                       # Total latency of read requests (Tick)
system.generator.totalWriteLatency                  0                       # Total latency of write requests (Tick)
system.generator.totalReads                   3547692                       # Total num of reads (Count)
system.generator.totalWrites                        0                       # Total num of writes (Count)
system.generator.avgReadLatency          1133183.606017                       # Avg latency of read requests ((Tick/Count))
system.generator.avgWriteLatency                  nan                       # Avg latency of write requests ((Tick/Count))
system.generator.readBW                  11352602479.767397                       # Read bandwidth ((Byte/Second))
system.generator.writeBW                            0                       # Write bandwidth ((Byte/Second))
system.generator.power_state.pwrStateResidencyTicks::UNDEFINED  20000021000                       # Cumulative time (in ticks) in various power states (Tick)
system.loc_mem_ctrl.avgPriority_writebacks::samples  14190656.00                       # Average QoS priority value for accepted requests (Count)
system.loc_mem_ctrl.priorityMinLatency   0.000000019000                       # per QoS priority minimum request to response latency (Second)
system.loc_mem_ctrl.priorityMaxLatency   0.000003156000                       # per QoS priority maximum request to response latency (Second)
system.loc_mem_ctrl.numReadWriteTurnArounds            0                       # Number of turnarounds from READ to WRITE (Count)
system.loc_mem_ctrl.numWriteReadTurnArounds            0                       # Number of turnarounds from WRITE to READ (Count)
system.loc_mem_ctrl.numStayReadState         14332846                       # Number of times bus staying in READ state (Count)
system.loc_mem_ctrl.numStayWriteState               0                       # Number of times bus staying in WRITE state (Count)
system.loc_mem_ctrl.readReqs                  3547778                       # Number of read requests accepted (Count)
system.loc_mem_ctrl.writeReqs                 3547558                       # Number of write requests accepted (Count)
system.loc_mem_ctrl.readBursts                7095556                       # Number of controller read bursts, including those serviced by the write queue (Count)
system.loc_mem_ctrl.writeBursts               7095116                       # Number of controller write bursts, including those merged in the write queue (Count)
system.loc_mem_ctrl.servicedByWrQ                  16                       # Number of controller read bursts serviced by the write queue (Count)
system.loc_mem_ctrl.mergedWrBursts                  0                       # Number of controller write bursts merged with an existing one (Count)
system.loc_mem_ctrl.avgRdQLen                   91.21                       # Average read queue length when enqueuing ((Count/Tick))
system.loc_mem_ctrl.avgWrQLen                   77.53                       # Average write queue length when enqueuing ((Count/Tick))
system.loc_mem_ctrl.numRdRetry                8646881                       # Number of times read queue was full causing retry (Count)
system.loc_mem_ctrl.numWrRetry                8699332                       # Number of times write queue was full causing retry (Count)
system.loc_mem_ctrl.readPktSize::0                  0                       # Read request sizes (log2) (Count)
system.loc_mem_ctrl.readPktSize::1                  0                       # Read request sizes (log2) (Count)
system.loc_mem_ctrl.readPktSize::2                  0                       # Read request sizes (log2) (Count)
system.loc_mem_ctrl.readPktSize::3                  0                       # Read request sizes (log2) (Count)
system.loc_mem_ctrl.readPktSize::4                  0                       # Read request sizes (log2) (Count)
system.loc_mem_ctrl.readPktSize::5            7095556                       # Read request sizes (log2) (Count)
system.loc_mem_ctrl.readPktSize::6                  0                       # Read request sizes (log2) (Count)
system.loc_mem_ctrl.writePktSize::0                 0                       # Write request sizes (log2) (Count)
system.loc_mem_ctrl.writePktSize::1                 0                       # Write request sizes (log2) (Count)
system.loc_mem_ctrl.writePktSize::2                 0                       # Write request sizes (log2) (Count)
system.loc_mem_ctrl.writePktSize::3                 0                       # Write request sizes (log2) (Count)
system.loc_mem_ctrl.writePktSize::4                 0                       # Write request sizes (log2) (Count)
system.loc_mem_ctrl.writePktSize::5           7095116                       # Write request sizes (log2) (Count)
system.loc_mem_ctrl.writePktSize::6                 0                       # Write request sizes (log2) (Count)
system.loc_mem_ctrl.rdQLenPdf::0                 1772                       # What read queue length does an incoming req see (Count)
system.loc_mem_ctrl.rdQLenPdf::1                 2053                       # What read queue length does an incoming req see (Count)
system.loc_mem_ctrl.rdQLenPdf::2                 7016                       # What read queue length does an incoming req see (Count)
system.loc_mem_ctrl.rdQLenPdf::3                 8435                       # What read queue length does an incoming req see (Count)
system.loc_mem_ctrl.rdQLenPdf::4                 9332                       # What read queue length does an incoming req see (Count)
system.loc_mem_ctrl.rdQLenPdf::5                10329                       # What read queue length does an incoming req see (Count)
system.loc_mem_ctrl.rdQLenPdf::6                10252                       # What read queue length does an incoming req see (Count)
system.loc_mem_ctrl.rdQLenPdf::7                10863                       # What read queue length does an incoming req see (Count)
system.loc_mem_ctrl.rdQLenPdf::8                10867                       # What read queue length does an incoming req see (Count)
system.loc_mem_ctrl.rdQLenPdf::9                10990                       # What read queue length does an incoming req see (Count)
system.loc_mem_ctrl.rdQLenPdf::10               11107                       # What read queue length does an incoming req see (Count)
system.loc_mem_ctrl.rdQLenPdf::11               11309                       # What read queue length does an incoming req see (Count)
system.loc_mem_ctrl.rdQLenPdf::12               11467                       # What read queue length does an incoming req see (Count)
system.loc_mem_ctrl.rdQLenPdf::13               11705                       # What read queue length does an incoming req see (Count)
system.loc_mem_ctrl.rdQLenPdf::14               11745                       # What read queue length does an incoming req see (Count)
system.loc_mem_ctrl.rdQLenPdf::15               11891                       # What read queue length does an incoming req see (Count)
system.loc_mem_ctrl.rdQLenPdf::16               12276                       # What read queue length does an incoming req see (Count)
system.loc_mem_ctrl.rdQLenPdf::17               12594                       # What read queue length does an incoming req see (Count)
system.loc_mem_ctrl.rdQLenPdf::18               12687                       # What read queue length does an incoming req see (Count)
system.loc_mem_ctrl.rdQLenPdf::19               12737                       # What read queue length does an incoming req see (Count)
system.loc_mem_ctrl.rdQLenPdf::20               12704                       # What read queue length does an incoming req see (Count)
system.loc_mem_ctrl.rdQLenPdf::21               12883                       # What read queue length does an incoming req see (Count)
system.loc_mem_ctrl.rdQLenPdf::22               12673                       # What read queue length does an incoming req see (Count)
system.loc_mem_ctrl.rdQLenPdf::23               12796                       # What read queue length does an incoming req see (Count)
system.loc_mem_ctrl.rdQLenPdf::24               12789                       # What read queue length does an incoming req see (Count)
system.loc_mem_ctrl.rdQLenPdf::25               12746                       # What read queue length does an incoming req see (Count)
system.loc_mem_ctrl.rdQLenPdf::26               12781                       # What read queue length does an incoming req see (Count)
system.loc_mem_ctrl.rdQLenPdf::27               12915                       # What read queue length does an incoming req see (Count)
system.loc_mem_ctrl.rdQLenPdf::28               13014                       # What read queue length does an incoming req see (Count)
system.loc_mem_ctrl.rdQLenPdf::29               13130                       # What read queue length does an incoming req see (Count)
system.loc_mem_ctrl.rdQLenPdf::30               13233                       # What read queue length does an incoming req see (Count)
system.loc_mem_ctrl.rdQLenPdf::31               13237                       # What read queue length does an incoming req see (Count)
system.loc_mem_ctrl.rdQLenPdf::32               13113                       # What read queue length does an incoming req see (Count)
system.loc_mem_ctrl.rdQLenPdf::33               13220                       # What read queue length does an incoming req see (Count)
system.loc_mem_ctrl.rdQLenPdf::34               13293                       # What read queue length does an incoming req see (Count)
system.loc_mem_ctrl.rdQLenPdf::35               13487                       # What read queue length does an incoming req see (Count)
system.loc_mem_ctrl.rdQLenPdf::36               13493                       # What read queue length does an incoming req see (Count)
system.loc_mem_ctrl.rdQLenPdf::37               13428                       # What read queue length does an incoming req see (Count)
system.loc_mem_ctrl.rdQLenPdf::38               13586                       # What read queue length does an incoming req see (Count)
system.loc_mem_ctrl.rdQLenPdf::39               13567                       # What read queue length does an incoming req see (Count)
system.loc_mem_ctrl.rdQLenPdf::40               24426                       # What read queue length does an incoming req see (Count)
system.loc_mem_ctrl.rdQLenPdf::41               28929                       # What read queue length does an incoming req see (Count)
system.loc_mem_ctrl.rdQLenPdf::42               27383                       # What read queue length does an incoming req see (Count)
system.loc_mem_ctrl.rdQLenPdf::43               27660                       # What read queue length does an incoming req see (Count)
system.loc_mem_ctrl.rdQLenPdf::44               29896                       # What read queue length does an incoming req see (Count)
system.loc_mem_ctrl.rdQLenPdf::45               29886                       # What read queue length does an incoming req see (Count)
system.loc_mem_ctrl.rdQLenPdf::46               30103                       # What read queue length does an incoming req see (Count)
system.loc_mem_ctrl.rdQLenPdf::47               30864                       # What read queue length does an incoming req see (Count)
system.loc_mem_ctrl.rdQLenPdf::48               31598                       # What read queue length does an incoming req see (Count)
system.loc_mem_ctrl.rdQLenPdf::49               32187                       # What read queue length does an incoming req see (Count)
system.loc_mem_ctrl.rdQLenPdf::50               32968                       # What read queue length does an incoming req see (Count)
system.loc_mem_ctrl.rdQLenPdf::51               33220                       # What read queue length does an incoming req see (Count)
system.loc_mem_ctrl.rdQLenPdf::52               34364                       # What read queue length does an incoming req see (Count)
system.loc_mem_ctrl.rdQLenPdf::53               35176                       # What read queue length does an incoming req see (Count)
system.loc_mem_ctrl.rdQLenPdf::54               35984                       # What read queue length does an incoming req see (Count)
system.loc_mem_ctrl.rdQLenPdf::55               36918                       # What read queue length does an incoming req see (Count)
system.loc_mem_ctrl.rdQLenPdf::56               38065                       # What read queue length does an incoming req see (Count)
system.loc_mem_ctrl.rdQLenPdf::57               39043                       # What read queue length does an incoming req see (Count)
system.loc_mem_ctrl.rdQLenPdf::58               40378                       # What read queue length does an incoming req see (Count)
system.loc_mem_ctrl.rdQLenPdf::59               41483                       # What read queue length does an incoming req see (Count)
system.loc_mem_ctrl.rdQLenPdf::60               43314                       # What read queue length does an incoming req see (Count)
system.loc_mem_ctrl.rdQLenPdf::61               44979                       # What read queue length does an incoming req see (Count)
system.loc_mem_ctrl.rdQLenPdf::62               66378                       # What read queue length does an incoming req see (Count)
system.loc_mem_ctrl.rdQLenPdf::63               72574                       # What read queue length does an incoming req see (Count)
system.loc_mem_ctrl.rdQLenPdf::64               74977                       # What read queue length does an incoming req see (Count)
system.loc_mem_ctrl.rdQLenPdf::65               80916                       # What read queue length does an incoming req see (Count)
system.loc_mem_ctrl.rdQLenPdf::66               81553                       # What read queue length does an incoming req see (Count)
system.loc_mem_ctrl.rdQLenPdf::67               89266                       # What read queue length does an incoming req see (Count)
system.loc_mem_ctrl.rdQLenPdf::68               93582                       # What read queue length does an incoming req see (Count)
system.loc_mem_ctrl.rdQLenPdf::69               99536                       # What read queue length does an incoming req see (Count)
system.loc_mem_ctrl.rdQLenPdf::70              106409                       # What read queue length does an incoming req see (Count)
system.loc_mem_ctrl.rdQLenPdf::71              111434                       # What read queue length does an incoming req see (Count)
system.loc_mem_ctrl.rdQLenPdf::72              117389                       # What read queue length does an incoming req see (Count)
system.loc_mem_ctrl.rdQLenPdf::73              122996                       # What read queue length does an incoming req see (Count)
system.loc_mem_ctrl.rdQLenPdf::74              128264                       # What read queue length does an incoming req see (Count)
system.loc_mem_ctrl.rdQLenPdf::75              132421                       # What read queue length does an incoming req see (Count)
system.loc_mem_ctrl.rdQLenPdf::76              137999                       # What read queue length does an incoming req see (Count)
system.loc_mem_ctrl.rdQLenPdf::77              140637                       # What read queue length does an incoming req see (Count)
system.loc_mem_ctrl.rdQLenPdf::78              144527                       # What read queue length does an incoming req see (Count)
system.loc_mem_ctrl.rdQLenPdf::79              146701                       # What read queue length does an incoming req see (Count)
system.loc_mem_ctrl.rdQLenPdf::80              148480                       # What read queue length does an incoming req see (Count)
system.loc_mem_ctrl.rdQLenPdf::81              149182                       # What read queue length does an incoming req see (Count)
system.loc_mem_ctrl.rdQLenPdf::82              150725                       # What read queue length does an incoming req see (Count)
system.loc_mem_ctrl.rdQLenPdf::83              150967                       # What read queue length does an incoming req see (Count)
system.loc_mem_ctrl.rdQLenPdf::84              150946                       # What read queue length does an incoming req see (Count)
system.loc_mem_ctrl.rdQLenPdf::85              150734                       # What read queue length does an incoming req see (Count)
system.loc_mem_ctrl.rdQLenPdf::86              150622                       # What read queue length does an incoming req see (Count)
system.loc_mem_ctrl.rdQLenPdf::87              149759                       # What read queue length does an incoming req see (Count)
system.loc_mem_ctrl.rdQLenPdf::88              149007                       # What read queue length does an incoming req see (Count)
system.loc_mem_ctrl.rdQLenPdf::89              148426                       # What read queue length does an incoming req see (Count)
system.loc_mem_ctrl.rdQLenPdf::90              146798                       # What read queue length does an incoming req see (Count)
system.loc_mem_ctrl.rdQLenPdf::91              145119                       # What read queue length does an incoming req see (Count)
system.loc_mem_ctrl.rdQLenPdf::92              143274                       # What read queue length does an incoming req see (Count)
system.loc_mem_ctrl.rdQLenPdf::93              141582                       # What read queue length does an incoming req see (Count)
system.loc_mem_ctrl.rdQLenPdf::94              139885                       # What read queue length does an incoming req see (Count)
system.loc_mem_ctrl.rdQLenPdf::95              138240                       # What read queue length does an incoming req see (Count)
system.loc_mem_ctrl.rdQLenPdf::96              136467                       # What read queue length does an incoming req see (Count)
system.loc_mem_ctrl.rdQLenPdf::97              135584                       # What read queue length does an incoming req see (Count)
system.loc_mem_ctrl.rdQLenPdf::98              134553                       # What read queue length does an incoming req see (Count)
system.loc_mem_ctrl.rdQLenPdf::99              133881                       # What read queue length does an incoming req see (Count)
system.loc_mem_ctrl.rdQLenPdf::100             132877                       # What read queue length does an incoming req see (Count)
system.loc_mem_ctrl.rdQLenPdf::101             131505                       # What read queue length does an incoming req see (Count)
system.loc_mem_ctrl.rdQLenPdf::102             127864                       # What read queue length does an incoming req see (Count)
system.loc_mem_ctrl.rdQLenPdf::103             119013                       # What read queue length does an incoming req see (Count)
system.loc_mem_ctrl.rdQLenPdf::104              92937                       # What read queue length does an incoming req see (Count)
system.loc_mem_ctrl.rdQLenPdf::105              55384                       # What read queue length does an incoming req see (Count)
system.loc_mem_ctrl.rdQLenPdf::106              25354                       # What read queue length does an incoming req see (Count)
system.loc_mem_ctrl.rdQLenPdf::107              22415                       # What read queue length does an incoming req see (Count)
system.loc_mem_ctrl.rdQLenPdf::108              20601                       # What read queue length does an incoming req see (Count)
system.loc_mem_ctrl.rdQLenPdf::109              20018                       # What read queue length does an incoming req see (Count)
system.loc_mem_ctrl.rdQLenPdf::110              19349                       # What read queue length does an incoming req see (Count)
system.loc_mem_ctrl.rdQLenPdf::111              19040                       # What read queue length does an incoming req see (Count)
system.loc_mem_ctrl.rdQLenPdf::112              18641                       # What read queue length does an incoming req see (Count)
system.loc_mem_ctrl.rdQLenPdf::113              18351                       # What read queue length does an incoming req see (Count)
system.loc_mem_ctrl.rdQLenPdf::114              17658                       # What read queue length does an incoming req see (Count)
system.loc_mem_ctrl.rdQLenPdf::115              17486                       # What read queue length does an incoming req see (Count)
system.loc_mem_ctrl.rdQLenPdf::116              17029                       # What read queue length does an incoming req see (Count)
system.loc_mem_ctrl.rdQLenPdf::117              16988                       # What read queue length does an incoming req see (Count)
system.loc_mem_ctrl.rdQLenPdf::118              16542                       # What read queue length does an incoming req see (Count)
system.loc_mem_ctrl.rdQLenPdf::119              16298                       # What read queue length does an incoming req see (Count)
system.loc_mem_ctrl.rdQLenPdf::120              15880                       # What read queue length does an incoming req see (Count)
system.loc_mem_ctrl.rdQLenPdf::121              15671                       # What read queue length does an incoming req see (Count)
system.loc_mem_ctrl.rdQLenPdf::122              15339                       # What read queue length does an incoming req see (Count)
system.loc_mem_ctrl.rdQLenPdf::123              15077                       # What read queue length does an incoming req see (Count)
system.loc_mem_ctrl.rdQLenPdf::124              14660                       # What read queue length does an incoming req see (Count)
system.loc_mem_ctrl.rdQLenPdf::125              14415                       # What read queue length does an incoming req see (Count)
system.loc_mem_ctrl.rdQLenPdf::126              13525                       # What read queue length does an incoming req see (Count)
system.loc_mem_ctrl.rdQLenPdf::127              11494                       # What read queue length does an incoming req see (Count)
system.loc_mem_ctrl.wrQLenPdf::0                 4130                       # What write queue length does an incoming req see (Count)
system.loc_mem_ctrl.wrQLenPdf::1                 5186                       # What write queue length does an incoming req see (Count)
system.loc_mem_ctrl.wrQLenPdf::2                 5599                       # What write queue length does an incoming req see (Count)
system.loc_mem_ctrl.wrQLenPdf::3                 6423                       # What write queue length does an incoming req see (Count)
system.loc_mem_ctrl.wrQLenPdf::4                 6887                       # What write queue length does an incoming req see (Count)
system.loc_mem_ctrl.wrQLenPdf::5                 7640                       # What write queue length does an incoming req see (Count)
system.loc_mem_ctrl.wrQLenPdf::6                 8086                       # What write queue length does an incoming req see (Count)
system.loc_mem_ctrl.wrQLenPdf::7                 8746                       # What write queue length does an incoming req see (Count)
system.loc_mem_ctrl.wrQLenPdf::8                 9283                       # What write queue length does an incoming req see (Count)
system.loc_mem_ctrl.wrQLenPdf::9                 9887                       # What write queue length does an incoming req see (Count)
system.loc_mem_ctrl.wrQLenPdf::10               10582                       # What write queue length does an incoming req see (Count)
system.loc_mem_ctrl.wrQLenPdf::11               11307                       # What write queue length does an incoming req see (Count)
system.loc_mem_ctrl.wrQLenPdf::12               11971                       # What write queue length does an incoming req see (Count)
system.loc_mem_ctrl.wrQLenPdf::13               12632                       # What write queue length does an incoming req see (Count)
system.loc_mem_ctrl.wrQLenPdf::14               13394                       # What write queue length does an incoming req see (Count)
system.loc_mem_ctrl.wrQLenPdf::15               13838                       # What write queue length does an incoming req see (Count)
system.loc_mem_ctrl.wrQLenPdf::16               14386                       # What write queue length does an incoming req see (Count)
system.loc_mem_ctrl.wrQLenPdf::17               14610                       # What write queue length does an incoming req see (Count)
system.loc_mem_ctrl.wrQLenPdf::18               15114                       # What write queue length does an incoming req see (Count)
system.loc_mem_ctrl.wrQLenPdf::19               15416                       # What write queue length does an incoming req see (Count)
system.loc_mem_ctrl.wrQLenPdf::20               15813                       # What write queue length does an incoming req see (Count)
system.loc_mem_ctrl.wrQLenPdf::21               16043                       # What write queue length does an incoming req see (Count)
system.loc_mem_ctrl.wrQLenPdf::22               16564                       # What write queue length does an incoming req see (Count)
system.loc_mem_ctrl.wrQLenPdf::23               16898                       # What write queue length does an incoming req see (Count)
system.loc_mem_ctrl.wrQLenPdf::24               17275                       # What write queue length does an incoming req see (Count)
system.loc_mem_ctrl.wrQLenPdf::25               17210                       # What write queue length does an incoming req see (Count)
system.loc_mem_ctrl.wrQLenPdf::26               17341                       # What write queue length does an incoming req see (Count)
system.loc_mem_ctrl.wrQLenPdf::27               17315                       # What write queue length does an incoming req see (Count)
system.loc_mem_ctrl.wrQLenPdf::28               17568                       # What write queue length does an incoming req see (Count)
system.loc_mem_ctrl.wrQLenPdf::29               17759                       # What write queue length does an incoming req see (Count)
system.loc_mem_ctrl.wrQLenPdf::30               17957                       # What write queue length does an incoming req see (Count)
system.loc_mem_ctrl.wrQLenPdf::31               18175                       # What write queue length does an incoming req see (Count)
system.loc_mem_ctrl.wrQLenPdf::32               18441                       # What write queue length does an incoming req see (Count)
system.loc_mem_ctrl.wrQLenPdf::33               18566                       # What write queue length does an incoming req see (Count)
system.loc_mem_ctrl.wrQLenPdf::34               18520                       # What write queue length does an incoming req see (Count)
system.loc_mem_ctrl.wrQLenPdf::35               18461                       # What write queue length does an incoming req see (Count)
system.loc_mem_ctrl.wrQLenPdf::36               18800                       # What write queue length does an incoming req see (Count)
system.loc_mem_ctrl.wrQLenPdf::37               18921                       # What write queue length does an incoming req see (Count)
system.loc_mem_ctrl.wrQLenPdf::38               19177                       # What write queue length does an incoming req see (Count)
system.loc_mem_ctrl.wrQLenPdf::39               19229                       # What write queue length does an incoming req see (Count)
system.loc_mem_ctrl.wrQLenPdf::40               19446                       # What write queue length does an incoming req see (Count)
system.loc_mem_ctrl.wrQLenPdf::41               19550                       # What write queue length does an incoming req see (Count)
system.loc_mem_ctrl.wrQLenPdf::42               19957                       # What write queue length does an incoming req see (Count)
system.loc_mem_ctrl.wrQLenPdf::43               20211                       # What write queue length does an incoming req see (Count)
system.loc_mem_ctrl.wrQLenPdf::44               20373                       # What write queue length does an incoming req see (Count)
system.loc_mem_ctrl.wrQLenPdf::45               20339                       # What write queue length does an incoming req see (Count)
system.loc_mem_ctrl.wrQLenPdf::46               20748                       # What write queue length does an incoming req see (Count)
system.loc_mem_ctrl.wrQLenPdf::47               20831                       # What write queue length does an incoming req see (Count)
system.loc_mem_ctrl.wrQLenPdf::48               20939                       # What write queue length does an incoming req see (Count)
system.loc_mem_ctrl.wrQLenPdf::49               20864                       # What write queue length does an incoming req see (Count)
system.loc_mem_ctrl.wrQLenPdf::50               21079                       # What write queue length does an incoming req see (Count)
system.loc_mem_ctrl.wrQLenPdf::51               21297                       # What write queue length does an incoming req see (Count)
system.loc_mem_ctrl.wrQLenPdf::52               21664                       # What write queue length does an incoming req see (Count)
system.loc_mem_ctrl.wrQLenPdf::53               21930                       # What write queue length does an incoming req see (Count)
system.loc_mem_ctrl.wrQLenPdf::54               22379                       # What write queue length does an incoming req see (Count)
system.loc_mem_ctrl.wrQLenPdf::55               22754                       # What write queue length does an incoming req see (Count)
[...]
system.loc_mem_ctrl.dram_2.bwTotal::total  11339760893                       # Total bandwidth to/from this memory ((Byte/Second))
system.loc_mem_ctrl.dram_2.readBursts         3543742                       # Number of DRAM read bursts (Count)
system.loc_mem_ctrl.dram_2.writeBursts        3543570                       # Number of DRAM write bursts (Count)
system.loc_mem_ctrl.dram_2.perBankRdBursts::0       220270                       # Per bank write bursts (Count)
system.loc_mem_ctrl.dram_2.perBankRdBursts::1       222532                       # Per bank write bursts (Count)
system.loc_mem_ctrl.dram_2.perBankRdBursts::2       221890                       # Per bank write bursts (Count)
system.loc_mem_ctrl.dram_2.perBankRdBursts::3       221154                       # Per bank write bursts (Count)
system.loc_mem_ctrl.dram_2.perBankRdBursts::4       221950                       # Per bank write bursts (Count)
system.loc_mem_ctrl.dram_2.perBankRdBursts::5       221662                       # Per bank write bursts (Count)
system.loc_mem_ctrl.dram_2.perBankRdBursts::6       221434                       # Per bank write bursts (Count)
system.loc_mem_ctrl.dram_2.perBankRdBursts::7       221318                       # Per bank write bursts (Count)
system.loc_mem_ctrl.dram_2.perBankRdBursts::8       222060                       # Per bank write bursts (Count)
system.loc_mem_ctrl.dram_2.perBankRdBursts::9       220780                       # Per bank write bursts (Count)
system.loc_mem_ctrl.dram_2.perBankRdBursts::10       220886                       # Per bank write bursts (Count)
system.loc_mem_ctrl.dram_2.perBankRdBursts::11       221198                       # Per bank write bursts (Count)
system.loc_mem_ctrl.dram_2.perBankRdBursts::12       221522                       # Per bank write bursts (Count)
system.loc_mem_ctrl.dram_2.perBankRdBursts::13       220674                       # Per bank write bursts (Count)
system.loc_mem_ctrl.dram_2.perBankRdBursts::14       222026                       # Per bank write bursts (Count)
system.loc_mem_ctrl.dram_2.perBankRdBursts::15       222386                       # Per bank write bursts (Count)
system.loc_mem_ctrl.dram_2.perBankWrBursts::0       220264                       # Per bank write bursts (Count)
system.loc_mem_ctrl.dram_2.perBankWrBursts::1       222524                       # Per bank write bursts (Count)
system.loc_mem_ctrl.dram_2.perBankWrBursts::2       221888                       # Per bank write bursts (Count)
system.loc_mem_ctrl.dram_2.perBankWrBursts::3       221147                       # Per bank write bursts (Count)
system.loc_mem_ctrl.dram_2.perBankWrBursts::4       221936                       # Per bank write bursts (Count)
system.loc_mem_ctrl.dram_2.perBankWrBursts::5       221648                       # Per bank write bursts (Count)
system.loc_mem_ctrl.dram_2.perBankWrBursts::6       221420                       # Per bank write bursts (Count)
system.loc_mem_ctrl.dram_2.perBankWrBursts::7       221314                       # Per bank write bursts (Count)
system.loc_mem_ctrl.dram_2.perBankWrBursts::8       222054                       # Per bank write bursts (Count)
system.loc_mem_ctrl.dram_2.perBankWrBursts::9       220769                       # Per bank write bursts (Count)
system.loc_mem_ctrl.dram_2.perBankWrBursts::10       220878                       # Per bank write bursts (Count)
system.loc_mem_ctrl.dram_2.perBankWrBursts::11       221178                       # Per bank write bursts (Count)
system.loc_mem_ctrl.dram_2.perBankWrBursts::12       221510                       # Per bank write bursts (Count)
system.loc_mem_ctrl.dram_2.perBankWrBursts::13       220654                       # Per bank write bursts (Count)
system.loc_mem_ctrl.dram_2.perBankWrBursts::14       222014                       # Per bank write bursts (Count)
system.loc_mem_ctrl.dram_2.perBankWrBursts::15       222372                       # Per bank write bursts (Count)
system.loc_mem_ctrl.dram_2.totQLat       747986109991                       # Total ticks spent queuing (Tick)
system.loc_mem_ctrl.dram_2.totBusLat       7087484000                       # Total ticks spent in databus transfers (Tick)
system.loc_mem_ctrl.dram_2.totMemAccLat  818860949991                       # Total ticks spent from burst creation until serviced by the DRAM (Tick)
system.loc_mem_ctrl.dram_2.avgQLat          211072.39                       # Average queueing delay per DRAM burst ((Tick/Count))
system.loc_mem_ctrl.dram_2.avgBusLat          2000.00                       # Average bus latency per DRAM burst ((Tick/Count))
system.loc_mem_ctrl.dram_2.avgMemAccLat     231072.39                       # Average memory access latency per DRAM burst ((Tick/Count))
system.loc_mem_ctrl.dram_2.readRowHits        1769765                       # Number of row buffer hits during reads (Count)
system.loc_mem_ctrl.dram_2.writeRowHits       1769583                       # Number of row buffer hits during writes (Count)
system.loc_mem_ctrl.dram_2.readRowHitRate        49.94                       # Row buffer hit rate for reads (Ratio)
system.loc_mem_ctrl.dram_2.writeRowHitRate        49.94                       # Row buffer hit rate for writes (Ratio)
system.loc_mem_ctrl.dram_2.bytesPerActivate::samples      3547962                       # Bytes accessed per row activation (Byte)
system.loc_mem_ctrl.dram_2.bytesPerActivate::mean    63.922308                       # Bytes accessed per row activation (Byte)
system.loc_mem_ctrl.dram_2.bytesPerActivate::gmean    63.891813                       # Bytes accessed per row activation (Byte)
system.loc_mem_ctrl.dram_2.bytesPerActivate::stdev     1.599926                       # Bytes accessed per row activation (Byte)
system.loc_mem_ctrl.dram_2.bytesPerActivate::32-47         8706      0.25%      0.25% # Bytes accessed per row activation (Byte)
system.loc_mem_ctrl.dram_2.bytesPerActivate::64-79      3539210     99.75%    100.00% # Bytes accessed per row activation (Byte)
system.loc_mem_ctrl.dram_2.bytesPerActivate::128-143           46      0.00%    100.00% # Bytes accessed per row activation (Byte)
system.loc_mem_ctrl.dram_2.bytesPerActivate::total      3547962                       # Bytes accessed per row activation (Byte)
system.loc_mem_ctrl.dram_2.bytesRead        113399744                       # Total bytes read (Byte)
system.loc_mem_ctrl.dram_2.bytesWritten     113394240                       # Total bytes written (Byte)
system.loc_mem_ctrl.dram_2.avgRdBW        5669.981247                       # Average DRAM read bandwidth in MiBytes/s ((Byte/Second))
system.loc_mem_ctrl.dram_2.avgWrBW        5669.706047                       # Average DRAM write bandwidth in MiBytes/s ((Byte/Second))
system.loc_mem_ctrl.dram_2.peakBW            16000.00                       # Theoretical peak bandwidth in MiByte/s ((Byte/Second))
system.loc_mem_ctrl.dram_2.busUtil              70.87                       # Data bus utilization in percentage (Ratio)
system.loc_mem_ctrl.dram_2.busUtilRead          35.44                       # Data bus utilization in percentage for reads (Ratio)
system.loc_mem_ctrl.dram_2.busUtilWrite         35.44                       # Data bus utilization in percentage for writes (Ratio)
system.loc_mem_ctrl.dram_2.pageHitRate          49.94                       # Row buffer hit rate, read and write combined (Ratio)
system.loc_mem_ctrl.dram_2.power_state.pwrStateResidencyTicks::UNDEFINED  20000021000                       # Cumulative time (in ticks) in various power states (Tick)
system.loc_mem_ctrl.dram_2.rank0.actEnergy            0                       # Energy for activate commands per rank (pJ) (Joule)
system.loc_mem_ctrl.dram_2.rank0.preEnergy            0                       # Energy for precharge commands per rank (pJ) (Joule)
system.loc_mem_ctrl.dram_2.rank0.readEnergy            0                       # Energy for read commands per rank (pJ) (Joule)
system.loc_mem_ctrl.dram_2.rank0.writeEnergy            0                       # Energy for write commands per rank (pJ) (Joule)
system.loc_mem_ctrl.dram_2.rank0.refreshEnergy            0                       # Energy for refresh commands per rank (pJ) (Joule)
system.loc_mem_ctrl.dram_2.rank0.actBackEnergy            0                       # Energy for active background per rank (pJ) (Joule)
system.loc_mem_ctrl.dram_2.rank0.preBackEnergy            0                       # Energy for precharge background per rank (pJ) (Joule)
system.loc_mem_ctrl.dram_2.rank0.actPowerDownEnergy            0                       # Energy for active power-down per rank (pJ) (Joule)
system.loc_mem_ctrl.dram_2.rank0.prePowerDownEnergy            0                       # Energy for precharge power-down per rank (pJ) (Joule)
system.loc_mem_ctrl.dram_2.rank0.selfRefreshEnergy            0                       # Energy for self refresh per rank (pJ) (Joule)
system.loc_mem_ctrl.dram_2.rank0.totalEnergy            0                       # Total energy per rank (pJ) (Joule)
system.loc_mem_ctrl.dram_2.rank0.averagePower            0                       # Core power per rank (mW) (Watt)
system.loc_mem_ctrl.dram_2.rank0.totalIdleTime            0                       # Total Idle time Per DRAM Rank (Tick)
system.loc_mem_ctrl.dram_2.rank0.pwrStateTime::IDLE     98746035                       # Time in different power states (Tick)
system.loc_mem_ctrl.dram_2.rank0.pwrStateTime::REF   1132120000                       # Time in different power states (Tick)
system.loc_mem_ctrl.dram_2.rank0.pwrStateTime::SREF            0                       # Time in different power states (Tick)
system.loc_mem_ctrl.dram_2.rank0.pwrStateTime::PRE_PDN            0                       # Time in different power states (Tick)
system.loc_mem_ctrl.dram_2.rank0.pwrStateTime::ACT  18769154965                       # Time in different power states (Tick)
system.loc_mem_ctrl.dram_2.rank0.pwrStateTime::ACT_PDN            0                       # Time in different power states (Tick)
system.loc_mem_ctrl.power_state.pwrStateResidencyTicks::UNDEFINED  20000021000                       # Cumulative time (in ticks) in various power states (Tick)
system.mem_ctrl.bytesRead::generator        227052864                       # Number of bytes read from this memory (Byte)
system.mem_ctrl.bytesRead::total            227052864                       # Number of bytes read from this memory (Byte)
system.mem_ctrl.numReads::generator           3547701                       # Number of read requests responded to by this memory (Count)
system.mem_ctrl.numReads::total               3547701                       # Number of read requests responded to by this memory (Count)
system.mem_ctrl.bwRead::generator         11352631280                       # Total read bandwidth from this memory ((Byte/Second))
system.mem_ctrl.bwRead::total             11352631280                       # Total read bandwidth from this memory ((Byte/Second))
system.mem_ctrl.bwTotal::generator        11352631280                       # Total bandwidth to/from this memory ((Byte/Second))
system.mem_ctrl.bwTotal::total            11352631280                       # Total bandwidth to/from this memory ((Byte/Second))
system.mem_ctrl.readReqs                      3547807                       # Number of read requests accepted (Count)
system.mem_ctrl.writeReqs                           0                       # Number of write requests accepted (Count)
system.mem_ctrl.servicedByWrQ                       0                       # Number of controller read bursts serviced by the write queue (Count)
system.mem_ctrl.mergedWrBursts                      0                       # Number of controller write bursts merged with an existing one (Count)
system.mem_ctrl.numRdRetry                    3545939                       # Number of times read queue was full causing retry (Count)
system.mem_ctrl.numWrRetry                          0                       # Number of times write queue was full causing retry (Count)
system.mem_ctrl.readPktSize::0                      0                       # Read request sizes (log2) (Count)
system.mem_ctrl.readPktSize::1                      0                       # Read request sizes (log2) (Count)
system.mem_ctrl.readPktSize::2                      0                       # Read request sizes (log2) (Count)
system.mem_ctrl.readPktSize::3                      0                       # Read request sizes (log2) (Count)
system.mem_ctrl.readPktSize::4                      0                       # Read request sizes (log2) (Count)
system.mem_ctrl.readPktSize::5                      0                       # Read request sizes (log2) (Count)
system.mem_ctrl.readPktSize::6                3547807                       # Read request sizes (log2) (Count)
system.mem_ctrl.writePktSize::0                     0                       # Write request sizes (log2) (Count)
system.mem_ctrl.writePktSize::1                     0                       # Write request sizes (log2) (Count)
system.mem_ctrl.writePktSize::2                     0                       # Write request sizes (log2) (Count)
system.mem_ctrl.writePktSize::3                     0                       # Write request sizes (log2) (Count)
system.mem_ctrl.writePktSize::4                     0                       # Write request sizes (log2) (Count)
system.mem_ctrl.writePktSize::5                     0                       # Write request sizes (log2) (Count)
system.mem_ctrl.writePktSize::6                     0                       # Write request sizes (log2) (Count)
system.mem_ctrl.bytesReadWrQ                        0                       # Total number of bytes read from write queue (Byte)
system.mem_ctrl.bytesReadSys                227059648                       # Total read bytes from the system interface side (Byte)
system.mem_ctrl.bytesWrittenSys                     0                       # Total written bytes from the system interface side (Byte)
system.mem_ctrl.avgRdBWSys               11352970479.38099670                       # Average system read bandwidth in Byte/s ((Byte/Second))
system.mem_ctrl.avgWrBWSys                 0.00000000                       # Average system write bandwidth in Byte/s ((Byte/Second))
system.mem_ctrl.totGap                   82742315535494                       # Total gap between requests (Tick)
system.mem_ctrl.avgGap                    23322101.66                       # Average gap between requests ((Tick/Count))
system.mem_ctrl.avgORBLen                    255.9983                       # Average ORB length ((Count/Tick))
system.mem_ctrl.avgLocRdQLenStrt               135.81                       # Average local read queue length ((Count/Tick))
system.mem_ctrl.avgLocWrQLenStrt                39.44                       # Average local write queue length ((Count/Tick))
system.mem_ctrl.avgFarRdQLenStrt                 4.41                       # Average far read queue length ((Count/Tick))
system.mem_ctrl.avgFarWrQLenStrt                 0.00                       # Average far write queue length ((Count/Tick))
system.mem_ctrl.avgLocRdQLenEnq                136.81                       # Average local read queue length when enqueuing ((Count/Tick))
system.mem_ctrl.avgLocWrQLenEnq                 74.97                       # Average local write queue length when enqueuing ((Count/Tick))
system.mem_ctrl.avgFarRdQLenEnq                 13.07                       # Average far read queue length when enqueuing ((Count/Tick))
system.mem_ctrl.avgFarWrQLenEnq                  0.00                       # Average far write queue length when enqueuing ((Count/Tick))
system.mem_ctrl.numWrBacks                          0                       # Total number of write backs from DRAM cache to main memory (Unspecified)
system.mem_ctrl.totNumConf                        910                       # Total number of packets conflicted on DRAM cache (Unspecified)
system.mem_ctrl.totNumORBFull                 3545939                       # Total number of packets ORB full (Unspecified)
system.mem_ctrl.totNumCRBFull                       0                       # Total number of packets conflicted yet couldn't enter confBuffer (Unspecified)
system.mem_ctrl.maxNumConf                          2                       # Maximum number of packets conflicted on DRAM cache (Unspecified)
system.mem_ctrl.sentLocRdPort                 3547778                       # stat (Unspecified)
system.mem_ctrl.sentLocWrPort                 3547558                       # stat (Unspecified)
system.mem_ctrl.failedLocRdPort               8646881                       # stat (Unspecified)
system.mem_ctrl.failedLocWrPort               8699332                       # stat (Unspecified)
system.mem_ctrl.recvdRdPort                         0                       # stat (Unspecified)
system.mem_ctrl.sentFarRdPort                 3547744                       # stat (Unspecified)
system.mem_ctrl.sentFarWrPort                       0                       # stat (Unspecified)
system.mem_ctrl.failedFarRdPort               2181962                       # stat (Unspecified)
system.mem_ctrl.failedFarWrPort                     0                       # stat (Unspecified)
system.mem_ctrl.totPktsServiceTime         5119637348                       # stat (Unspecified)
system.mem_ctrl.totPktsORBTime             5118981943                       # stat (Unspecified)
system.mem_ctrl.totTimeFarRdtoSend          153964961                       # stat (Unspecified)
system.mem_ctrl.totTimeFarRdtoRecv          636216045                       # stat (Unspecified)
system.mem_ctrl.totTimeFarWrtoSend                  0                       # stat (Unspecified)
system.mem_ctrl.totTimeInLocRead           3099782880                       # stat (Unspecified)
system.mem_ctrl.totTimeInLocWrite          1225366206                       # stat (Unspecified)
system.mem_ctrl.totTimeInFarRead            790900749                       # stat (Unspecified)
system.mem_ctrl.numTotHits                          0                       # stat (Unspecified)
system.mem_ctrl.numTotMisses                  3547807                       # stat (Unspecified)
system.mem_ctrl.numColdMisses                 1012938                       # stat (Unspecified)
system.mem_ctrl.numHotMisses                  2534869                       # stat (Unspecified)
system.mem_ctrl.numRdMissClean                3547807                       # stat (Unspecified)
system.mem_ctrl.numRdMissDirty                      0                       # stat (Unspecified)
system.mem_ctrl.numRdHit                            0                       # stat (Unspecified)
system.mem_ctrl.numWrMissClean                      0                       # stat (Unspecified)
system.mem_ctrl.numWrMissDirty                      0                       # stat (Unspecified)
system.mem_ctrl.numWrHit                            0                       # stat (Unspecified)
system.mem_ctrl.numRdHitDirty                       0                       # stat (Unspecified)
system.mem_ctrl.numRdHitClean                       0                       # stat (Unspecified)
system.mem_ctrl.numWrHitDirty                       0                       # stat (Unspecified)
system.mem_ctrl.numWrHitClean                       0                       # stat (Unspecified)
system.mem_ctrl.power_state.pwrStateResidencyTicks::UNDEFINED  20000021000                       # Cumulative time (in ticks) in various power states (Tick)
system.workload.inst.arm                            0                       # number of arm instructions executed (Count)
system.workload.inst.quiesce                        0                       # number of quiesce instructions executed (Count)

---------- End Simulation Statistics   ----------
