
---------- Begin Simulation Statistics ----------
simSeconds                                   0.010000                       # Number of seconds simulated (Second)
simTicks                                  10000001130                       # Number of ticks simulated (Tick)
finalTick                                 10000001130                       # Number of ticks from beginning of simulation (restored from checkpoints and never reset) (Tick)
simFreq                                  1000000000000                       # The number of ticks per simulated second ((Tick/Second))
hostSeconds                                     64.40                       # Real time elapsed on the host (Second)
hostTickRate                                155278775                       # The number of ticks simulated per host second (ticks/s) ((Tick/Second))
hostMemory                                    3276144                       # Number of bytes of host memory used (Byte)
system.clk_domain.clock                           250                       # Clock period in ticks (Tick)
system.clk_domain.voltage_domain.voltage            1                       # Voltage in Volts (Volt)
system.far_mem_ctrl.avgPriority_writebacks::samples   2803254.00                       # Average QoS priority value for accepted requests (Count)
system.far_mem_ctrl.priorityMinLatency   0.000000044812                       # per QoS priority minimum request to response latency (Second)
system.far_mem_ctrl.priorityMaxLatency   0.000002911332                       # per QoS priority maximum request to response latency (Second)
system.far_mem_ctrl.numReadWriteTurnArounds            0                       # Number of turnarounds from READ to WRITE (Count)
system.far_mem_ctrl.numWriteReadTurnArounds            0                       # Number of turnarounds from WRITE to READ (Count)
system.far_mem_ctrl.numStayReadState          2821176                       # Number of times bus staying in READ state (Count)
system.far_mem_ctrl.numStayWriteState               0                       # Number of times bus staying in WRITE state (Count)
system.far_mem_ctrl.readReqs                  2803254                       # Number of read requests accepted (Count)
system.far_mem_ctrl.writeReqs                       0                       # Number of write requests accepted (Count)
system.far_mem_ctrl.readBursts                2803254                       # Number of controller read bursts, including those serviced by the write queue (Count)
system.far_mem_ctrl.writeBursts                     0                       # Number of controller write bursts, including those merged in the write queue (Count)
system.far_mem_ctrl.servicedByWrQ                   0                       # Number of controller read bursts serviced by the write queue (Count)
system.far_mem_ctrl.mergedWrBursts                  0                       # Number of controller write bursts merged with an existing one (Count)
system.far_mem_ctrl.avgRdQLen                   64.00                       # Average read queue length when enqueuing ((Count/Tick))
system.far_mem_ctrl.avgWrQLen                    0.00                       # Average write queue length when enqueuing ((Count/Tick))
system.far_mem_ctrl.numRdRetry                3932372                       # Number of times read queue was full causing retry (Count)
system.far_mem_ctrl.numWrRetry                      0                       # Number of times write queue was full causing retry (Count)
system.far_mem_ctrl.readPktSize::0                  0                       # Read request sizes (log2) (Count)
system.far_mem_ctrl.readPktSize::1                  0                       # Read request sizes (log2) (Count)
system.far_mem_ctrl.readPktSize::2                  0                       # Read request sizes (log2) (Count)
system.far_mem_ctrl.readPktSize::3                  0                       # Read request sizes (log2) (Count)
system.far_mem_ctrl.readPktSize::4                  0                       # Read request sizes (log2) (Count)
system.far_mem_ctrl.readPktSize::5                  0                       # Read request sizes (log2) (Count)
system.far_mem_ctrl.readPktSize::6            2803254                       # Read request sizes (log2) (Count)
system.far_mem_ctrl.writePktSize::0                 0                       # Write request sizes (log2) (Count)
system.far_mem_ctrl.writePktSize::1                 0                       # Write request sizes (log2) (Count)
system.far_mem_ctrl.writePktSize::2                 0                       # Write request sizes (log2) (Count)
system.far_mem_ctrl.writePktSize::3                 0                       # Write request sizes (log2) (Count)
system.far_mem_ctrl.writePktSize::4                 0                       # Write request sizes (log2) (Count)
system.far_mem_ctrl.writePktSize::5                 0                       # Write request sizes (log2) (Count)
system.far_mem_ctrl.writePktSize::6                 0                       # Write request sizes (log2) (Count)
system.far_mem_ctrl.rdQLenPdf::0                    1                       # What read queue length does an incoming req see (Count)
system.far_mem_ctrl.rdQLenPdf::1                    1                       # What read queue length does an incoming req see (Count)
system.far_mem_ctrl.rdQLenPdf::2                    1                       # What read queue length does an incoming req see (Count)
system.far_mem_ctrl.rdQLenPdf::3                    1                       # What read queue length does an incoming req see (Count)
system.far_mem_ctrl.rdQLenPdf::4                    1                       # What read queue length does an incoming req see (Count)
system.far_mem_ctrl.rdQLenPdf::5                    1                       # What read queue length does an incoming req see (Count)
system.far_mem_ctrl.rdQLenPdf::6                    1                       # What read queue length does an incoming req see (Count)
system.far_mem_ctrl.rdQLenPdf::7                    1                       # What read queue length does an incoming req see (Count)
system.far_mem_ctrl.rdQLenPdf::8                    1                       # What read queue length does an incoming req see (Count)
system.far_mem_ctrl.rdQLenPdf::9                    1                       # What read queue length does an incoming req see (Count)
system.far_mem_ctrl.rdQLenPdf::10                   1                       # What read queue length does an incoming req see (Count)
system.far_mem_ctrl.rdQLenPdf::11                   1                       # What read queue length does an incoming req see (Count)
system.far_mem_ctrl.rdQLenPdf::12                   1                       # What read queue length does an incoming req see (Count)
system.far_mem_ctrl.rdQLenPdf::13                   1                       # What read queue length does an incoming req see (Count)
system.far_mem_ctrl.rdQLenPdf::14                   1                       # What read queue length does an incoming req see (Count)
system.far_mem_ctrl.rdQLenPdf::15                   1                       # What read queue length does an incoming req see (Count)
system.far_mem_ctrl.rdQLenPdf::16                   1                       # What read queue length does an incoming req see (Count)
system.far_mem_ctrl.rdQLenPdf::17                   1                       # What read queue length does an incoming req see (Count)
system.far_mem_ctrl.rdQLenPdf::18                   1                       # What read queue length does an incoming req see (Count)
system.far_mem_ctrl.rdQLenPdf::19                   1                       # What read queue length does an incoming req see (Count)
system.far_mem_ctrl.rdQLenPdf::20                   1                       # What read queue length does an incoming req see (Count)
system.far_mem_ctrl.rdQLenPdf::21                   1                       # What read queue length does an incoming req see (Count)
system.far_mem_ctrl.rdQLenPdf::22                   1                       # What read queue length does an incoming req see (Count)
system.far_mem_ctrl.rdQLenPdf::23                   1                       # What read queue length does an incoming req see (Count)
system.far_mem_ctrl.rdQLenPdf::24                   1                       # What read queue length does an incoming req see (Count)
system.far_mem_ctrl.rdQLenPdf::25                   1                       # What read queue length does an incoming req see (Count)
system.far_mem_ctrl.rdQLenPdf::26                   1                       # What read queue length does an incoming req see (Count)
system.far_mem_ctrl.rdQLenPdf::27                   1                       # What read queue length does an incoming req see (Count)
system.far_mem_ctrl.rdQLenPdf::28                   1                       # What read queue length does an incoming req see (Count)
system.far_mem_ctrl.rdQLenPdf::29                   1                       # What read queue length does an incoming req see (Count)
system.far_mem_ctrl.rdQLenPdf::30                   1                       # What read queue length does an incoming req see (Count)
system.far_mem_ctrl.rdQLenPdf::31                   1                       # What read queue length does an incoming req see (Count)
system.far_mem_ctrl.rdQLenPdf::32                   1                       # What read queue length does an incoming req see (Count)
system.far_mem_ctrl.rdQLenPdf::33                   1                       # What read queue length does an incoming req see (Count)
system.far_mem_ctrl.rdQLenPdf::34                   1                       # What read queue length does an incoming req see (Count)
system.far_mem_ctrl.rdQLenPdf::35                   1                       # What read queue length does an incoming req see (Count)
system.far_mem_ctrl.rdQLenPdf::36                   1                       # What read queue length does an incoming req see (Count)
system.far_mem_ctrl.rdQLenPdf::37                   1                       # What read queue length does an incoming req see (Count)
system.far_mem_ctrl.rdQLenPdf::38                   1                       # What read queue length does an incoming req see (Count)
system.far_mem_ctrl.rdQLenPdf::39                   1                       # What read queue length does an incoming req see (Count)
system.far_mem_ctrl.rdQLenPdf::40                   1                       # What read queue length does an incoming req see (Count)
system.far_mem_ctrl.rdQLenPdf::41                   1                       # What read queue length does an incoming req see (Count)
system.far_mem_ctrl.rdQLenPdf::42                   1                       # What read queue length does an incoming req see (Count)
system.far_mem_ctrl.rdQLenPdf::43                   1                       # What read queue length does an incoming req see (Count)
system.far_mem_ctrl.rdQLenPdf::44                   2                       # What read queue length does an incoming req see (Count)
system.far_mem_ctrl.rdQLenPdf::45                   1                       # What read queue length does an incoming req see (Count)
system.far_mem_ctrl.rdQLenPdf::46                   1                       # What read queue length does an incoming req see (Count)
system.far_mem_ctrl.rdQLenPdf::47                   1                       # What read queue length does an incoming req see (Count)
system.far_mem_ctrl.rdQLenPdf::48                   2                       # What read queue length does an incoming req see (Count)
system.far_mem_ctrl.rdQLenPdf::49                   1                       # What read queue length does an incoming req see (Count)
system.far_mem_ctrl.rdQLenPdf::50                   1                       # What read queue length does an incoming req see (Count)
system.far_mem_ctrl.rdQLenPdf::51                   2                       # What read queue length does an incoming req see (Count)
system.far_mem_ctrl.rdQLenPdf::52                   1                       # What read queue length does an incoming req see (Count)
system.far_mem_ctrl.rdQLenPdf::53                   2                       # What read queue length does an incoming req see (Count)
system.far_mem_ctrl.rdQLenPdf::54                   1                       # What read queue length does an incoming req see (Count)
system.far_mem_ctrl.rdQLenPdf::55                   2                       # What read queue length does an incoming req see (Count)
system.far_mem_ctrl.rdQLenPdf::56                   1                       # What read queue length does an incoming req see (Count)
system.far_mem_ctrl.rdQLenPdf::57                   1                       # What read queue length does an incoming req see (Count)
system.far_mem_ctrl.rdQLenPdf::58                   1                       # What read queue length does an incoming req see (Count)
system.far_mem_ctrl.rdQLenPdf::59                   2                       # What read queue length does an incoming req see (Count)
system.far_mem_ctrl.rdQLenPdf::60                   1                       # What read queue length does an incoming req see (Count)
system.far_mem_ctrl.rdQLenPdf::61                   1                       # What read queue length does an incoming req see (Count)
system.far_mem_ctrl.rdQLenPdf::62                   2                       # What read queue length does an incoming req see (Count)
system.far_mem_ctrl.rdQLenPdf::63             2803184                       # What read queue length does an incoming req see (Count)
system.far_mem_ctrl.wrQLenPdf::0                    0                       # What write queue length does an incoming req see (Count)
system.far_mem_ctrl.wrQLenPdf::1                    0                       # What write queue length does an incoming req see (Count)
system.far_mem_ctrl.wrQLenPdf::2                    0                       # What write queue length does an incoming req see (Count)
system.far_mem_ctrl.wrQLenPdf::3                    0                       # What write queue length does an incoming req see (Count)
system.far_mem_ctrl.wrQLenPdf::4                    0                       # What write queue length does an incoming req see (Count)
system.far_mem_ctrl.wrQLenPdf::5                    0                       # What write queue length does an incoming req see (Count)
system.far_mem_ctrl.wrQLenPdf::6                    0                       # What write queue length does an incoming req see (Count)
system.far_mem_ctrl.wrQLenPdf::7                    0                       # What write queue length does an incoming req see (Count)
system.far_mem_ctrl.wrQLenPdf::8                    0                       # What write queue length does an incoming req see (Count)
system.far_mem_ctrl.wrQLenPdf::9                    0                       # What write queue length does an incoming req see (Count)
system.far_mem_ctrl.wrQLenPdf::10                   0                       # What write queue length does an incoming req see (Count)
system.far_mem_ctrl.wrQLenPdf::11                   0                       # What write queue length does an incoming req see (Count)
system.far_mem_ctrl.wrQLenPdf::12                   0                       # What write queue length does an incoming req see (Count)
system.far_mem_ctrl.wrQLenPdf::13                   0                       # What write queue length does an incoming req see (Count)
system.far_mem_ctrl.wrQLenPdf::14                   0                       # What write queue length does an incoming req see (Count)
system.far_mem_ctrl.wrQLenPdf::15                   0                       # What write queue length does an incoming req see (Count)
system.far_mem_ctrl.wrQLenPdf::16                   0                       # What write queue length does an incoming req see (Count)
system.far_mem_ctrl.wrQLenPdf::17                   0                       # What write queue length does an incoming req see (Count)
system.far_mem_ctrl.wrQLenPdf::18                   0                       # What write queue length does an incoming req see (Count)
system.far_mem_ctrl.wrQLenPdf::19                   0                       # What write queue length does an incoming req see (Count)
system.far_mem_ctrl.wrQLenPdf::20                   0                       # What write queue length does an incoming req see (Count)
system.far_mem_ctrl.wrQLenPdf::21                   0                       # What write queue length does an incoming req see (Count)
system.far_mem_ctrl.wrQLenPdf::22                   0                       # What write queue length does an incoming req see (Count)
system.far_mem_ctrl.wrQLenPdf::23                   0                       # What write queue length does an incoming req see (Count)
system.far_mem_ctrl.wrQLenPdf::24                   0                       # What write queue length does an incoming req see (Count)
system.far_mem_ctrl.wrQLenPdf::25                   0                       # What write queue length does an incoming req see (Count)
system.far_mem_ctrl.wrQLenPdf::26                   0                       # What write queue length does an incoming req see (Count)
system.far_mem_ctrl.wrQLenPdf::27                   0                       # What write queue length does an incoming req see (Count)
system.far_mem_ctrl.wrQLenPdf::28                   0                       # What write queue length does an incoming req see (Count)
system.far_mem_ctrl.wrQLenPdf::29                   0                       # What write queue length does an incoming req see (Count)
system.far_mem_ctrl.wrQLenPdf::30                   0                       # What write queue length does an incoming req see (Count)
system.far_mem_ctrl.wrQLenPdf::31                   0                       # What write queue length does an incoming req see (Count)
system.far_mem_ctrl.wrQLenPdf::32                   0                       # What write queue length does an incoming req see (Count)
system.far_mem_ctrl.wrQLenPdf::33                   0                       # What write queue length does an incoming req see (Count)
system.far_mem_ctrl.wrQLenPdf::34                   0                       # What write queue length does an incoming req see (Count)
system.far_mem_ctrl.wrQLenPdf::35                   0                       # What write queue length does an incoming req see (Count)
system.far_mem_ctrl.wrQLenPdf::36                   0                       # What write queue length does an incoming req see (Count)
system.far_mem_ctrl.wrQLenPdf::37                   0                       # What write queue length does an incoming req see (Count)
system.far_mem_ctrl.wrQLenPdf::38                   0                       # What write queue length does an incoming req see (Count)
system.far_mem_ctrl.wrQLenPdf::39                   0                       # What write queue length does an incoming req see (Count)
system.far_mem_ctrl.wrQLenPdf::40                   0                       # What write queue length does an incoming req see (Count)
system.far_mem_ctrl.wrQLenPdf::41                   0                       # What write queue length does an incoming req see (Count)
system.far_mem_ctrl.wrQLenPdf::42                   0                       # What write queue length does an incoming req see (Count)
system.far_mem_ctrl.wrQLenPdf::43                   0                       # What write queue length does an incoming req see (Count)
system.far_mem_ctrl.wrQLenPdf::44                   0                       # What write queue length does an incoming req see (Count)
system.far_mem_ctrl.wrQLenPdf::45                   0                       # What write queue length does an incoming req see (Count)
system.far_mem_ctrl.wrQLenPdf::46                   0                       # What write queue length does an incoming req see (Count)
system.far_mem_ctrl.wrQLenPdf::47                   0                       # What write queue length does an incoming req see (Count)
system.far_mem_ctrl.wrQLenPdf::48                   0                       # What write queue length does an incoming req see (Count)
system.far_mem_ctrl.wrQLenPdf::49                   0                       # What write queue length does an incoming req see (Count)
system.far_mem_ctrl.wrQLenPdf::50                   0                       # What write queue length does an incoming req see (Count)
system.far_mem_ctrl.wrQLenPdf::51                   0                       # What write queue length does an incoming req see (Count)
system.far_mem_ctrl.wrQLenPdf::52                   0                       # What write queue length does an incoming req see (Count)
system.far_mem_ctrl.wrQLenPdf::53                   0                       # What write queue length does an incoming req see (Count)
system.far_mem_ctrl.wrQLenPdf::54                   0                       # What write queue length does an incoming req see (Count)
system.far_mem_ctrl.wrQLenPdf::55                   0                       # What write queue length does an incoming req see (Count)
system.far_mem_ctrl.wrQLenPdf::56                   0                       # What write queue length does an incoming req see (Count)
system.far_mem_ctrl.wrQLenPdf::57                   0                       # What write queue length does an incoming req see (Count)
system.far_mem_ctrl.wrQLenPdf::58                   0                       # What write queue length does an incoming req see (Count)
system.far_mem_ctrl.wrQLenPdf::59                   0                       # What write queue length does an incoming req see (Count)
system.far_mem_ctrl.wrQLenPdf::60                   0                       # What write queue length does an incoming req see (Count)
system.far_mem_ctrl.wrQLenPdf::61                   0                       # What write queue length does an incoming req see (Count)
system.far_mem_ctrl.wrQLenPdf::62                   0                       # What write queue length does an incoming req see (Count)
system.far_mem_ctrl.wrQLenPdf::63                   0                       # What write queue length does an incoming req see (Count)
system.far_mem_ctrl.wrQLenPdf::64                   0                       # What write queue length does an incoming req see (Count)
system.far_mem_ctrl.wrQLenPdf::65                   0                       # What write queue length does an incoming req see (Count)
system.far_mem_ctrl.wrQLenPdf::66                   0                       # What write queue length does an incoming req see (Count)
system.far_mem_ctrl.wrQLenPdf::67                   0                       # What write queue length does an incoming req see (Count)
system.far_mem_ctrl.wrQLenPdf::68                   0                       # What write queue length does an incoming req see (Count)
system.far_mem_ctrl.wrQLenPdf::69                   0                       # What write queue length does an incoming req see (Count)
system.far_mem_ctrl.wrQLenPdf::70                   0                       # What write queue length does an incoming req see (Count)
system.far_mem_ctrl.wrQLenPdf::71                   0                       # What write queue length does an incoming req see (Count)
system.far_mem_ctrl.wrQLenPdf::72                   0                       # What write queue length does an incoming req see (Count)
system.far_mem_ctrl.wrQLenPdf::73                   0                       # What write queue length does an incoming req see (Count)
system.far_mem_ctrl.wrQLenPdf::74                   0                       # What write queue length does an incoming req see (Count)
system.far_mem_ctrl.wrQLenPdf::75                   0                       # What write queue length does an incoming req see (Count)
system.far_mem_ctrl.wrQLenPdf::76                   0                       # What write queue length does an incoming req see (Count)
system.far_mem_ctrl.wrQLenPdf::77                   0                       # What write queue length does an incoming req see (Count)
system.far_mem_ctrl.wrQLenPdf::78                   0                       # What write queue length does an incoming req see (Count)
system.far_mem_ctrl.wrQLenPdf::79                   0                       # What write queue length does an incoming req see (Count)
system.far_mem_ctrl.wrQLenPdf::80                   0                       # What write queue length does an incoming req see (Count)
system.far_mem_ctrl.wrQLenPdf::81                   0                       # What write queue length does an incoming req see (Count)
system.far_mem_ctrl.wrQLenPdf::82                   0                       # What write queue length does an incoming req see (Count)
system.far_mem_ctrl.wrQLenPdf::83                   0                       # What write queue length does an incoming req see (Count)
system.far_mem_ctrl.wrQLenPdf::84                   0                       # What write queue length does an incoming req see (Count)
system.far_mem_ctrl.wrQLenPdf::85                   0                       # What write queue length does an incoming req see (Count)
system.far_mem_ctrl.wrQLenPdf::86                   0                       # What write queue length does an incoming req see (Count)
system.far_mem_ctrl.wrQLenPdf::87                   0                       # What write queue length does an incoming req see (Count)
system.far_mem_ctrl.wrQLenPdf::88                   0                       # What write queue length does an incoming req see (Count)
system.far_mem_ctrl.wrQLenPdf::89                   0                       # What write queue length does an incoming req see (Count)
system.far_mem_ctrl.wrQLenPdf::90                   0                       # What write queue length does an incoming req see (Count)
system.far_mem_ctrl.wrQLenPdf::91                   0                       # What write queue length does an incoming req see (Count)
system.far_mem_ctrl.wrQLenPdf::92                   0                       # What write queue length does an incoming req see (Count)
system.far_mem_ctrl.wrQLenPdf::93                   0                       # What write queue length does an incoming req see (Count)
system.far_mem_ctrl.wrQLenPdf::94                   0                       # What write queue length does an incoming req see (Count)
system.far_mem_ctrl.wrQLenPdf::95                   0                       # What write queue length does an incoming req see (Count)
system.far_mem_ctrl.wrQLenPdf::96                   0                       # What write queue length does an incoming req see (Count)
system.far_mem_ctrl.wrQLenPdf::97                   0                       # What write queue length does an incoming req see (Count)
system.far_mem_ctrl.wrQLenPdf::98                   0                       # What write queue length does an incoming req see (Count)
system.far_mem_ctrl.wrQLenPdf::99                   0                       # What write queue length does an incoming req see (Count)
system.far_mem_ctrl.wrQLenPdf::100                  0                       # What write queue length does an incoming req see (Count)
system.far_mem_ctrl.wrQLenPdf::101                  0                       # What write queue length does an incoming req see (Count)
system.far_mem_ctrl.wrQLenPdf::102                  0                       # What write queue length does an incoming req see (Count)
system.far_mem_ctrl.wrQLenPdf::103                  0                       # What write queue length does an incoming req see (Count)
system.far_mem_ctrl.wrQLenPdf::104                  0                       # What write queue length does an incoming req see (Count)
system.far_mem_ctrl.wrQLenPdf::105                  0                       # What write queue length does an incoming req see (Count)
system.far_mem_ctrl.wrQLenPdf::106                  0                       # What write queue length does an incoming req see (Count)
system.far_mem_ctrl.wrQLenPdf::107                  0                       # What write queue length does an incoming req see (Count)
system.far_mem_ctrl.wrQLenPdf::108                  0                       # What write queue length does an incoming req see (Count)
system.far_mem_ctrl.wrQLenPdf::109                  0                       # What write queue length does an incoming req see (Count)
system.far_mem_ctrl.wrQLenPdf::110                  0                       # What write queue length does an incoming req see (Count)
system.far_mem_ctrl.wrQLenPdf::111                  0                       # What write queue length does an incoming req see (Count)
system.far_mem_ctrl.wrQLenPdf::112                  0                       # What write queue length does an incoming req see (Count)
system.far_mem_ctrl.wrQLenPdf::113                  0                       # What write queue length does an incoming req see (Count)
system.far_mem_ctrl.wrQLenPdf::114                  0                       # What write queue length does an incoming req see (Count)
system.far_mem_ctrl.wrQLenPdf::115                  0                       # What write queue length does an incoming req see (Count)
system.far_mem_ctrl.wrQLenPdf::116                  0                       # What write queue length does an incoming req see (Count)
system.far_mem_ctrl.wrQLenPdf::117                  0                       # What write queue length does an incoming req see (Count)
system.far_mem_ctrl.wrQLenPdf::118                  0                       # What write queue length does an incoming req see (Count)
system.far_mem_ctrl.wrQLenPdf::119                  0                       # What write queue length does an incoming req see (Count)
system.far_mem_ctrl.wrQLenPdf::120                  0                       # What write queue length does an incoming req see (Count)
system.far_mem_ctrl.wrQLenPdf::121                  0                       # What write queue length does an incoming req see (Count)
system.far_mem_ctrl.wrQLenPdf::122                  0                       # What write queue length does an incoming req see (Count)
system.far_mem_ctrl.wrQLenPdf::123                  0                       # What write queue length does an incoming req see (Count)
system.far_mem_ctrl.wrQLenPdf::124                  0                       # What write queue length does an incoming req see (Count)
system.far_mem_ctrl.wrQLenPdf::125                  0                       # What write queue length does an incoming req see (Count)
system.far_mem_ctrl.wrQLenPdf::126                  0                       # What write queue length does an incoming req see (Count)
system.far_mem_ctrl.wrQLenPdf::127                  0                       # What write queue length does an incoming req see (Count)
system.far_mem_ctrl.bytesReadWrQ                    0                       # Total number of bytes read from write queue (Byte)
system.far_mem_ctrl.bytesReadSys            179408256                       # Total read bytes from the system interface side (Byte)
system.far_mem_ctrl.bytesWrittenSys                 0                       # Total written bytes from the system interface side (Byte)
system.far_mem_ctrl.avgRdBWSys           17940823572.68693542                       # Average system read bandwidth in Byte/s ((Byte/Second))
system.far_mem_ctrl.avgWrBWSys             0.00000000                       # Average system write bandwidth in Byte/s ((Byte/Second))
system.far_mem_ctrl.totGap                10000000118                       # Total gap between requests (Tick)
system.far_mem_ctrl.avgGap                    3567.28                       # Average gap between requests ((Tick/Count))
system.far_mem_ctrl.requestorReadBytes::writebacks    179404992                       # Per-requestor bytes read from memory (Byte)
system.far_mem_ctrl.requestorReadRate::writebacks 17940497172.723819732666                       # Per-requestor bytes read from memory rate ((Byte/Second))
system.far_mem_ctrl.requestorReadAccesses::writebacks      2803254                       # Per-requestor read serviced memory accesses (Count)
system.far_mem_ctrl.requestorReadTotalLat::writebacks 639992180166                       # Per-requestor read total memory access latency (Tick)
system.far_mem_ctrl.requestorReadAvgLat::writebacks    228303.31                       # Per-requestor read average memory access latency ((Tick/Count))
system.far_mem_ctrl.dram.bytesRead::writebacks    179404160                       # Number of bytes read from this memory (Byte)
system.far_mem_ctrl.dram.bytesRead::total    179404160                       # Number of bytes read from this memory (Byte)
system.far_mem_ctrl.dram.numReads::writebacks      2803190                       # Number of read requests responded to by this memory (Count)
system.far_mem_ctrl.dram.numReads::total      2803190                       # Number of read requests responded to by this memory (Count)
system.far_mem_ctrl.dram.bwRead::writebacks  17940413973                       # Total read bandwidth from this memory ((Byte/Second))
system.far_mem_ctrl.dram.bwRead::total    17940413973                       # Total read bandwidth from this memory ((Byte/Second))
system.far_mem_ctrl.dram.bwTotal::writebacks  17940413973                       # Total bandwidth to/from this memory ((Byte/Second))
system.far_mem_ctrl.dram.bwTotal::total   17940413973                       # Total bandwidth to/from this memory ((Byte/Second))
system.far_mem_ctrl.dram.readBursts           2803203                       # Number of DRAM read bursts (Count)
system.far_mem_ctrl.dram.writeBursts                0                       # Number of DRAM write bursts (Count)
system.far_mem_ctrl.dram.perBankRdBursts::0        88056                       # Per bank write bursts (Count)
system.far_mem_ctrl.dram.perBankRdBursts::1        87520                       # Per bank write bursts (Count)
system.far_mem_ctrl.dram.perBankRdBursts::2        87863                       # Per bank write bursts (Count)
system.far_mem_ctrl.dram.perBankRdBursts::3        87853                       # Per bank write bursts (Count)
system.far_mem_ctrl.dram.perBankRdBursts::4        88007                       # Per bank write bursts (Count)
system.far_mem_ctrl.dram.perBankRdBursts::5        87789                       # Per bank write bursts (Count)
system.far_mem_ctrl.dram.perBankRdBursts::6        87293                       # Per bank write bursts (Count)
system.far_mem_ctrl.dram.perBankRdBursts::7        87236                       # Per bank write bursts (Count)
system.far_mem_ctrl.dram.perBankRdBursts::8        87332                       # Per bank write bursts (Count)
system.far_mem_ctrl.dram.perBankRdBursts::9        87309                       # Per bank write bursts (Count)
system.far_mem_ctrl.dram.perBankRdBursts::10        87365                       # Per bank write bursts (Count)
system.far_mem_ctrl.dram.perBankRdBursts::11        87076                       # Per bank write bursts (Count)
system.far_mem_ctrl.dram.perBankRdBursts::12        88069                       # Per bank write bursts (Count)
system.far_mem_ctrl.dram.perBankRdBursts::13        87623                       # Per bank write bursts (Count)
system.far_mem_ctrl.dram.perBankRdBursts::14        87351                       # Per bank write bursts (Count)
system.far_mem_ctrl.dram.perBankRdBursts::15        88040                       # Per bank write bursts (Count)
system.far_mem_ctrl.dram.perBankRdBursts::16        87572                       # Per bank write bursts (Count)
system.far_mem_ctrl.dram.perBankRdBursts::17        87633                       # Per bank write bursts (Count)
system.far_mem_ctrl.dram.perBankRdBursts::18        87331                       # Per bank write bursts (Count)
system.far_mem_ctrl.dram.perBankRdBursts::19        87406                       # Per bank write bursts (Count)
system.far_mem_ctrl.dram.perBankRdBursts::20        87633                       # Per bank write bursts (Count)
system.far_mem_ctrl.dram.perBankRdBursts::21        87346                       # Per bank write bursts (Count)
system.far_mem_ctrl.dram.perBankRdBursts::22        88066                       # Per bank write bursts (Count)
system.far_mem_ctrl.dram.perBankRdBursts::23        87718                       # Per bank write bursts (Count)
system.far_mem_ctrl.dram.perBankRdBursts::24        87256                       # Per bank write bursts (Count)
system.far_mem_ctrl.dram.perBankRdBursts::25        87537                       # Per bank write bursts (Count)
system.far_mem_ctrl.dram.perBankRdBursts::26        87203                       # Per bank write bursts (Count)
system.far_mem_ctrl.dram.perBankRdBursts::27        87877                       # Per bank write bursts (Count)
system.far_mem_ctrl.dram.perBankRdBursts::28        87898                       # Per bank write bursts (Count)
system.far_mem_ctrl.dram.perBankRdBursts::29        87396                       # Per bank write bursts (Count)
system.far_mem_ctrl.dram.perBankRdBursts::30        87416                       # Per bank write bursts (Count)
system.far_mem_ctrl.dram.perBankRdBursts::31        88133                       # Per bank write bursts (Count)
system.far_mem_ctrl.dram.perBankWrBursts::0            0                       # Per bank write bursts (Count)
system.far_mem_ctrl.dram.perBankWrBursts::1            0                       # Per bank write bursts (Count)
system.far_mem_ctrl.dram.perBankWrBursts::2            0                       # Per bank write bursts (Count)
system.far_mem_ctrl.dram.perBankWrBursts::3            0                       # Per bank write bursts (Count)
system.far_mem_ctrl.dram.perBankWrBursts::4            0                       # Per bank write bursts (Count)
system.far_mem_ctrl.dram.perBankWrBursts::5            0                       # Per bank write bursts (Count)
system.far_mem_ctrl.dram.perBankWrBursts::6            0                       # Per bank write bursts (Count)
system.far_mem_ctrl.dram.perBankWrBursts::7            0                       # Per bank write bursts (Count)
system.far_mem_ctrl.dram.perBankWrBursts::8            0                       # Per bank write bursts (Count)
system.far_mem_ctrl.dram.perBankWrBursts::9            0                       # Per bank write bursts (Count)
system.far_mem_ctrl.dram.perBankWrBursts::10            0                       # Per bank write bursts (Count)
system.far_mem_ctrl.dram.perBankWrBursts::11            0                       # Per bank write bursts (Count)
system.far_mem_ctrl.dram.perBankWrBursts::12            0                       # Per bank write bursts (Count)
system.far_mem_ctrl.dram.perBankWrBursts::13            0                       # Per bank write bursts (Count)
system.far_mem_ctrl.dram.perBankWrBursts::14            0                       # Per bank write bursts (Count)
system.far_mem_ctrl.dram.perBankWrBursts::15            0                       # Per bank write bursts (Count)
system.far_mem_ctrl.dram.perBankWrBursts::16            0                       # Per bank write bursts (Count)
system.far_mem_ctrl.dram.perBankWrBursts::17            0                       # Per bank write bursts (Count)
system.far_mem_ctrl.dram.perBankWrBursts::18            0                       # Per bank write bursts (Count)
system.far_mem_ctrl.dram.perBankWrBursts::19            0                       # Per bank write bursts (Count)
system.far_mem_ctrl.dram.perBankWrBursts::20            0                       # Per bank write bursts (Count)
system.far_mem_ctrl.dram.perBankWrBursts::21            0                       # Per bank write bursts (Count)
system.far_mem_ctrl.dram.perBankWrBursts::22            0                       # Per bank write bursts (Count)
system.far_mem_ctrl.dram.perBankWrBursts::23            0                       # Per bank write bursts (Count)
system.far_mem_ctrl.dram.perBankWrBursts::24            0                       # Per bank write bursts (Count)
system.far_mem_ctrl.dram.perBankWrBursts::25            0                       # Per bank write bursts (Count)
system.far_mem_ctrl.dram.perBankWrBursts::26            0                       # Per bank write bursts (Count)
system.far_mem_ctrl.dram.perBankWrBursts::27            0                       # Per bank write bursts (Count)
system.far_mem_ctrl.dram.perBankWrBursts::28            0                       # Per bank write bursts (Count)
system.far_mem_ctrl.dram.perBankWrBursts::29            0                       # Per bank write bursts (Count)
system.far_mem_ctrl.dram.perBankWrBursts::30            0                       # Per bank write bursts (Count)
system.far_mem_ctrl.dram.perBankWrBursts::31            0                       # Per bank write bursts (Count)
system.far_mem_ctrl.dram.totQLat         590958553290                       # Total ticks spent queuing (Tick)
system.far_mem_ctrl.dram.totBusLat         9340272396                       # Total ticks spent in databus transfers (Tick)
system.far_mem_ctrl.dram.totMemAccLat    639992180166                       # Total ticks spent from burst creation until serviced by the DRAM (Tick)
system.far_mem_ctrl.dram.avgQLat            210815.47                       # Average queueing delay per DRAM burst ((Tick/Count))
system.far_mem_ctrl.dram.avgBusLat            3332.00                       # Average bus latency per DRAM burst ((Tick/Count))
system.far_mem_ctrl.dram.avgMemAccLat       228307.47                       # Average memory access latency per DRAM burst ((Tick/Count))
system.far_mem_ctrl.dram.readRowHits              471                       # Number of row buffer hits during reads (Count)
system.far_mem_ctrl.dram.writeRowHits               0                       # Number of row buffer hits during writes (Count)
system.far_mem_ctrl.dram.readRowHitRate          0.02                       # Row buffer hit rate for reads (Ratio)
system.far_mem_ctrl.dram.writeRowHitRate          nan                       # Row buffer hit rate for writes (Ratio)
system.far_mem_ctrl.dram.bytesPerActivate::samples      2802716                       # Bytes accessed per row activation (Byte)
system.far_mem_ctrl.dram.bytesPerActivate::mean    64.010755                       # Bytes accessed per row activation (Byte)
system.far_mem_ctrl.dram.bytesPerActivate::gmean    64.007455                       # Bytes accessed per row activation (Byte)
system.far_mem_ctrl.dram.bytesPerActivate::stdev     0.829592                       # Bytes accessed per row activation (Byte)
system.far_mem_ctrl.dram.bytesPerActivate::64-79      2802245     99.98%     99.98% # Bytes accessed per row activation (Byte)
system.far_mem_ctrl.dram.bytesPerActivate::128-143          471      0.02%    100.00% # Bytes accessed per row activation (Byte)
system.far_mem_ctrl.dram.bytesPerActivate::total      2802716                       # Bytes accessed per row activation (Byte)
system.far_mem_ctrl.dram.bytesRead          179404992                       # Total bytes read (Byte)
system.far_mem_ctrl.dram.bytesWritten               0                       # Total bytes written (Byte)
system.far_mem_ctrl.dram.avgRdBW         17940.497173                       # Average DRAM read bandwidth in MiBytes/s ((Byte/Second))
system.far_mem_ctrl.dram.avgWrBW                    0                       # Average DRAM write bandwidth in MiBytes/s ((Byte/Second))
system.far_mem_ctrl.dram.peakBW              19207.00                       # Theoretical peak bandwidth in MiByte/s ((Byte/Second))
system.far_mem_ctrl.dram.busUtil                93.41                       # Data bus utilization in percentage (Ratio)
system.far_mem_ctrl.dram.busUtilRead            93.41                       # Data bus utilization in percentage for reads (Ratio)
system.far_mem_ctrl.dram.busUtilWrite            0.00                       # Data bus utilization in percentage for writes (Ratio)
system.far_mem_ctrl.dram.pageHitRate             0.02                       # Row buffer hit rate, read and write combined (Ratio)
system.far_mem_ctrl.dram.power_state.pwrStateResidencyTicks::UNDEFINED  10000001130                       # Cumulative time (in ticks) in various power states (Tick)
system.far_mem_ctrl.dram.rank0.actEnergy 4371077509.343998                       # Energy for activate commands per rank (pJ) (Joule)
system.far_mem_ctrl.dram.rank0.preEnergy 5811241753.127998                       # Energy for precharge commands per rank (pJ) (Joule)
system.far_mem_ctrl.dram.rank0.readEnergy 5896301319.686391                       # Energy for read commands per rank (pJ) (Joule)
system.far_mem_ctrl.dram.rank0.writeEnergy            0                       # Energy for write commands per rank (pJ) (Joule)
system.far_mem_ctrl.dram.rank0.refreshEnergy 1778824873.324749                       # Energy for refresh commands per rank (pJ) (Joule)
system.far_mem_ctrl.dram.rank0.actBackEnergy 8453023245.676800                       # Energy for active background per rank (pJ) (Joule)
system.far_mem_ctrl.dram.rank0.preBackEnergy 33022817.587200                       # Energy for precharge background per rank (pJ) (Joule)
system.far_mem_ctrl.dram.rank0.actPowerDownEnergy            0                       # Energy for active power-down per rank (pJ) (Joule)
system.far_mem_ctrl.dram.rank0.prePowerDownEnergy            0                       # Energy for precharge power-down per rank (pJ) (Joule)
system.far_mem_ctrl.dram.rank0.selfRefreshEnergy            0                       # Energy for self refresh per rank (pJ) (Joule)
system.far_mem_ctrl.dram.rank0.totalEnergy 26343491518.747196                       # Total energy per rank (pJ) (Joule)
system.far_mem_ctrl.dram.rank0.averagePower  2634.348854                       # Core power per rank (mW) (Watt)
system.far_mem_ctrl.dram.rank0.totalIdleTime            0                       # Total Idle time Per DRAM Rank (Tick)
system.far_mem_ctrl.dram.rank0.pwrStateTime::IDLE     15065682                       # Time in different power states (Tick)
system.far_mem_ctrl.dram.rank0.pwrStateTime::REF    449400000                       # Time in different power states (Tick)
system.far_mem_ctrl.dram.rank0.pwrStateTime::SREF            0                       # Time in different power states (Tick)
system.far_mem_ctrl.dram.rank0.pwrStateTime::PRE_PDN            0                       # Time in different power states (Tick)
system.far_mem_ctrl.dram.rank0.pwrStateTime::ACT   9535535448                       # Time in different power states (Tick)
system.far_mem_ctrl.dram.rank0.pwrStateTime::ACT_PDN            0                       # Time in different power states (Tick)
system.far_mem_ctrl.dram.rank1.actEnergy 4369936046.111999                       # Energy for activate commands per rank (pJ) (Joule)
system.far_mem_ctrl.dram.rank1.preEnergy 5809740777.758410                       # Energy for precharge commands per rank (pJ) (Joule)
system.far_mem_ctrl.dram.rank1.readEnergy 5894820696.172793                       # Energy for read commands per rank (pJ) (Joule)
system.far_mem_ctrl.dram.rank1.writeEnergy            0                       # Energy for write commands per rank (pJ) (Joule)
system.far_mem_ctrl.dram.rank1.refreshEnergy 1778824873.324749                       # Energy for refresh commands per rank (pJ) (Joule)
system.far_mem_ctrl.dram.rank1.actBackEnergy 8453387719.828800                       # Energy for active background per rank (pJ) (Joule)
system.far_mem_ctrl.dram.rank1.preBackEnergy 32742769.651200                       # Energy for precharge background per rank (pJ) (Joule)
system.far_mem_ctrl.dram.rank1.actPowerDownEnergy            0                       # Energy for active power-down per rank (pJ) (Joule)
system.far_mem_ctrl.dram.rank1.prePowerDownEnergy            0                       # Energy for precharge power-down per rank (pJ) (Joule)
system.far_mem_ctrl.dram.rank1.selfRefreshEnergy            0                       # Energy for self refresh per rank (pJ) (Joule)
system.far_mem_ctrl.dram.rank1.totalEnergy 26339452882.847977                       # Total energy per rank (pJ) (Joule)
system.far_mem_ctrl.dram.rank1.averagePower  2633.944991                       # Core power per rank (mW) (Watt)
system.far_mem_ctrl.dram.rank1.totalIdleTime            0                       # Total Idle time Per DRAM Rank (Tick)
system.far_mem_ctrl.dram.rank1.pwrStateTime::IDLE     14642654                       # Time in different power states (Tick)
system.far_mem_ctrl.dram.rank1.pwrStateTime::REF    449400000                       # Time in different power states (Tick)
system.far_mem_ctrl.dram.rank1.pwrStateTime::SREF            0                       # Time in different power states (Tick)
system.far_mem_ctrl.dram.rank1.pwrStateTime::PRE_PDN            0                       # Time in different power states (Tick)
system.far_mem_ctrl.dram.rank1.pwrStateTime::ACT   9535958476                       # Time in different power states (Tick)
system.far_mem_ctrl.dram.rank1.pwrStateTime::ACT_PDN            0                       # Time in different power states (Tick)
system.far_mem_ctrl.power_state.pwrStateResidencyTicks::UNDEFINED  10000001130                       # Cumulative time (in ticks) in various power states (Tick)
system.generator.numSuppressed                      0                       # Number of suppressed packets to non-memory space (Count)
system.generator.numPackets                   2803437                       # Number of packets generated (Count)
system.generator.numRetries                   2802327                       # Number of retries (Count)
system.generator.retryTicks                9998312496                       # Time spent waiting due to back-pressure (Tick)
system.generator.bytesRead                  179403136                       # Number of bytes read (Byte)
system.generator.bytesWritten                       0                       # Number of bytes written (Byte)
system.generator.totalReadLatency        2615255254142                       # Total latency of read requests (Tick)
system.generator.totalWriteLatency                  0                       # Total latency of write requests (Tick)
system.generator.totalReads                   2803174                       # Total num of reads (Count)
system.generator.totalWrites                        0                       # Total num of writes (Count)
system.generator.avgReadLatency          932962.154380                       # Avg latency of read requests ((Tick/Count))
system.generator.avgWriteLatency                  nan                       # Avg latency of write requests ((Tick/Count))
system.generator.readBW                  17940311572.744793                       # Read bandwidth ((Byte/Second))
system.generator.writeBW                            0                       # Write bandwidth ((Byte/Second))
system.generator.power_state.pwrStateResidencyTicks::UNDEFINED  10000001130                       # Cumulative time (in ticks) in various power states (Tick)
system.loc_mem_ctrl.avgPriority_writebacks::samples   5606368.00                       # Average QoS priority value for accepted requests (Count)
system.loc_mem_ctrl.priorityMinLatency   0.000000022228                       # per QoS priority minimum request to response latency (Second)
system.loc_mem_ctrl.priorityMaxLatency   0.000001567396                       # per QoS priority maximum request to response latency (Second)
system.loc_mem_ctrl.numReadWriteTurnArounds            0                       # Number of turnarounds from READ to WRITE (Count)
system.loc_mem_ctrl.numWriteReadTurnArounds            0                       # Number of turnarounds from WRITE to READ (Count)
system.loc_mem_ctrl.numStayReadState          5983451                       # Number of times bus staying in READ state (Count)
system.loc_mem_ctrl.numStayWriteState               0                       # Number of times bus staying in WRITE state (Count)
system.loc_mem_ctrl.readReqs                        0                       # Number of read requests accepted (Count)
system.loc_mem_ctrl.writeReqs                 2803184                       # Number of write requests accepted (Count)
system.loc_mem_ctrl.readBursts                      0                       # Number of controller read bursts, including those serviced by the write queue (Count)
system.loc_mem_ctrl.writeBursts               5606368                       # Number of controller write bursts, including those merged in the write queue (Count)
system.loc_mem_ctrl.servicedByWrQ                   0                       # Number of controller read bursts serviced by the write queue (Count)
system.loc_mem_ctrl.mergedWrBursts                  0                       # Number of controller write bursts merged with an existing one (Count)
system.loc_mem_ctrl.avgRdQLen                    0.00                       # Average read queue length when enqueuing ((Count/Tick))
system.loc_mem_ctrl.avgWrQLen                   33.85                       # Average write queue length when enqueuing ((Count/Tick))
system.loc_mem_ctrl.numRdRetry                      0                       # Number of times read queue was full causing retry (Count)
system.loc_mem_ctrl.numWrRetry                 281575                       # Number of times write queue was full causing retry (Count)
system.loc_mem_ctrl.readPktSize::0                  0                       # Read request sizes (log2) (Count)
system.loc_mem_ctrl.readPktSize::1                  0                       # Read request sizes (log2) (Count)
system.loc_mem_ctrl.readPktSize::2                  0                       # Read request sizes (log2) (Count)
system.loc_mem_ctrl.readPktSize::3                  0                       # Read request sizes (log2) (Count)
system.loc_mem_ctrl.readPktSize::4                  0                       # Read request sizes (log2) (Count)
system.loc_mem_ctrl.readPktSize::5                  0                       # Read request sizes (log2) (Count)
system.loc_mem_ctrl.readPktSize::6                  0                       # Read request sizes (log2) (Count)
system.loc_mem_ctrl.writePktSize::0                 0                       # Write request sizes (log2) (Count)
system.loc_mem_ctrl.writePktSize::1                 0                       # Write request sizes (log2) (Count)
system.loc_mem_ctrl.writePktSize::2                 0                       # Write request sizes (log2) (Count)
system.loc_mem_ctrl.writePktSize::3                 0                       # Write request sizes (log2) (Count)
system.loc_mem_ctrl.writePktSize::4                 0                       # Write request sizes (log2) (Count)
system.loc_mem_ctrl.writePktSize::5           5606368                       # Write request sizes (log2) (Count)
system.loc_mem_ctrl.writePktSize::6                 0                       # Write request sizes (log2) (Count)
system.loc_mem_ctrl.rdQLenPdf::0                    0                       # What read queue length does an incoming req see (Count)
system.loc_mem_ctrl.rdQLenPdf::1                    0                       # What read queue length does an incoming req see (Count)
system.loc_mem_ctrl.rdQLenPdf::2                    0                       # What read queue length does an incoming req see (Count)
system.loc_mem_ctrl.rdQLenPdf::3                    0                       # What read queue length does an incoming req see (Count)
system.loc_mem_ctrl.rdQLenPdf::4                    0                       # What read queue length does an incoming req see (Count)
system.loc_mem_ctrl.rdQLenPdf::5                    0                       # What read queue length does an incoming req see (Count)
system.loc_mem_ctrl.rdQLenPdf::6                    0                       # What read queue length does an incoming req see (Count)
system.loc_mem_ctrl.rdQLenPdf::7                    0                       # What read queue length does an incoming req see (Count)
system.loc_mem_ctrl.rdQLenPdf::8                    0                       # What read queue length does an incoming req see (Count)
system.loc_mem_ctrl.rdQLenPdf::9                    0                       # What read queue length does an incoming req see (Count)
system.loc_mem_ctrl.rdQLenPdf::10                   0                       # What read queue length does an incoming req see (Count)
system.loc_mem_ctrl.rdQLenPdf::11                   0                       # What read queue length does an incoming req see (Count)
system.loc_mem_ctrl.rdQLenPdf::12                   0                       # What read queue length does an incoming req see (Count)
system.loc_mem_ctrl.rdQLenPdf::13                   0                       # What read queue length does an incoming req see (Count)
system.loc_mem_ctrl.rdQLenPdf::14                   0                       # What read queue length does an incoming req see (Count)
system.loc_mem_ctrl.rdQLenPdf::15                   0                       # What read queue length does an incoming req see (Count)
system.loc_mem_ctrl.rdQLenPdf::16                   0                       # What read queue length does an incoming req see (Count)
system.loc_mem_ctrl.rdQLenPdf::17                   0                       # What read queue length does an incoming req see (Count)
system.loc_mem_ctrl.rdQLenPdf::18                   0                       # What read queue length does an incoming req see (Count)
system.loc_mem_ctrl.rdQLenPdf::19                   0                       # What read queue length does an incoming req see (Count)
system.loc_mem_ctrl.rdQLenPdf::20                   0                       # What read queue length does an incoming req see (Count)
system.loc_mem_ctrl.rdQLenPdf::21                   0                       # What read queue length does an incoming req see (Count)
system.loc_mem_ctrl.rdQLenPdf::22                   0                       # What read queue length does an incoming req see (Count)
system.loc_mem_ctrl.rdQLenPdf::23                   0                       # What read queue length does an incoming req see (Count)
system.loc_mem_ctrl.rdQLenPdf::24                   0                       # What read queue length does an incoming req see (Count)
system.loc_mem_ctrl.rdQLenPdf::25                   0                       # What read queue length does an incoming req see (Count)
system.loc_mem_ctrl.rdQLenPdf::26                   0                       # What read queue length does an incoming req see (Count)
system.loc_mem_ctrl.rdQLenPdf::27                   0                       # What read queue length does an incoming req see (Count)
system.loc_mem_ctrl.rdQLenPdf::28                   0                       # What read queue length does an incoming req see (Count)
system.loc_mem_ctrl.rdQLenPdf::29                   0                       # What read queue length does an incoming req see (Count)
system.loc_mem_ctrl.rdQLenPdf::30                   0                       # What read queue length does an incoming req see (Count)
system.loc_mem_ctrl.rdQLenPdf::31                   0                       # What read queue length does an incoming req see (Count)
system.loc_mem_ctrl.rdQLenPdf::32                   0                       # What read queue length does an incoming req see (Count)
system.loc_mem_ctrl.rdQLenPdf::33                   0                       # What read queue length does an incoming req see (Count)
system.loc_mem_ctrl.rdQLenPdf::34                   0                       # What read queue length does an incoming req see (Count)
system.loc_mem_ctrl.rdQLenPdf::35                   0                       # What read queue length does an incoming req see (Count)
system.loc_mem_ctrl.rdQLenPdf::36                   0                       # What read queue length does an incoming req see (Count)
system.loc_mem_ctrl.rdQLenPdf::37                   0                       # What read queue length does an incoming req see (Count)
system.loc_mem_ctrl.rdQLenPdf::38                   0                       # What read queue length does an incoming req see (Count)
system.loc_mem_ctrl.rdQLenPdf::39                   0                       # What read queue length does an incoming req see (Count)
system.loc_mem_ctrl.rdQLenPdf::40                   0                       # What read queue length does an incoming req see (Count)
system.loc_mem_ctrl.rdQLenPdf::41                   0                       # What read queue length does an incoming req see (Count)
system.loc_mem_ctrl.rdQLenPdf::42                   0                       # What read queue length does an incoming req see (Count)
system.loc_mem_ctrl.rdQLenPdf::43                   0                       # What read queue length does an incoming req see (Count)
system.loc_mem_ctrl.rdQLenPdf::44                   0                       # What read queue length does an incoming req see (Count)
system.loc_mem_ctrl.rdQLenPdf::45                   0                       # What read queue length does an incoming req see (Count)
system.loc_mem_ctrl.rdQLenPdf::46                   0                       # What read queue length does an incoming req see (Count)
system.loc_mem_ctrl.rdQLenPdf::47                   0                       # What read queue length does an incoming req see (Count)
system.loc_mem_ctrl.rdQLenPdf::48                   0                       # What read queue length does an incoming req see (Count)
system.loc_mem_ctrl.rdQLenPdf::49                   0                       # What read queue length does an incoming req see (Count)
system.loc_mem_ctrl.rdQLenPdf::50                   0                       # What read queue length does an incoming req see (Count)
system.loc_mem_ctrl.rdQLenPdf::51                   0                       # What read queue length does an incoming req see (Count)
system.loc_mem_ctrl.rdQLenPdf::52                   0                       # What read queue length does an incoming req see (Count)
system.loc_mem_ctrl.rdQLenPdf::53                   0                       # What read queue length does an incoming req see (Count)
system.loc_mem_ctrl.rdQLenPdf::54                   0                       # What read queue length does an incoming req see (Count)
system.loc_mem_ctrl.rdQLenPdf::55                   0                       # What read queue length does an incoming req see (Count)
system.loc_mem_ctrl.rdQLenPdf::56                   0                       # What read queue length does an incoming req see (Count)
system.loc_mem_ctrl.rdQLenPdf::57                   0                       # What read queue length does an incoming req see (Count)
system.loc_mem_ctrl.rdQLenPdf::58                   0                       # What read queue length does an incoming req see (Count)
system.loc_mem_ctrl.rdQLenPdf::59                   0                       # What read queue length does an incoming req see (Count)
system.loc_mem_ctrl.rdQLenPdf::60                   0                       # What read queue length does an incoming req see (Count)
system.loc_mem_ctrl.rdQLenPdf::61                   0                       # What read queue length does an incoming req see (Count)
system.loc_mem_ctrl.rdQLenPdf::62                   0                       # What read queue length does an incoming req see (Count)
system.loc_mem_ctrl.rdQLenPdf::63                   0                       # What read queue length does an incoming req see (Count)
system.loc_mem_ctrl.rdQLenPdf::64                   0                       # What read queue length does an incoming req see (Count)
system.loc_mem_ctrl.rdQLenPdf::65                   0                       # What read queue length does an incoming req see (Count)
system.loc_mem_ctrl.rdQLenPdf::66                   0                       # What read queue length does an incoming req see (Count)
system.loc_mem_ctrl.rdQLenPdf::67                   0                       # What read queue length does an incoming req see (Count)
system.loc_mem_ctrl.rdQLenPdf::68                   0                       # What read queue length does an incoming req see (Count)
system.loc_mem_ctrl.rdQLenPdf::69                   0                       # What read queue length does an incoming req see (Count)
system.loc_mem_ctrl.rdQLenPdf::70                   0                       # What read queue length does an incoming req see (Count)
system.loc_mem_ctrl.rdQLenPdf::71                   0                       # What read queue length does an incoming req see (Count)
system.loc_mem_ctrl.rdQLenPdf::72                   0                       # What read queue length does an incoming req see (Count)
system.loc_mem_ctrl.rdQLenPdf::73                   0                       # What read queue length does an incoming req see (Count)
system.loc_mem_ctrl.rdQLenPdf::74                   0                       # What read queue length does an incoming req see (Count)
system.loc_mem_ctrl.rdQLenPdf::75                   0                       # What read queue length does an incoming req see (Count)
system.loc_mem_ctrl.rdQLenPdf::76                   0                       # What read queue length does an incoming req see (Count)
system.loc_mem_ctrl.rdQLenPdf::77                   0                       # What read queue length does an incoming req see (Count)
system.loc_mem_ctrl.rdQLenPdf::78                   0                       # What read queue length does an incoming req see (Count)
system.loc_mem_ctrl.rdQLenPdf::79                   0                       # What read queue length does an incoming req see (Count)
system.loc_mem_ctrl.rdQLenPdf::80                   0                       # What read queue length does an incoming req see (Count)
system.loc_mem_ctrl.rdQLenPdf::81                   0                       # What read queue length does an incoming req see (Count)
system.loc_mem_ctrl.rdQLenPdf::82                   0                       # What read queue length does an incoming req see (Count)
system.loc_mem_ctrl.rdQLenPdf::83                   0                       # What read queue length does an incoming req see (Count)
system.loc_mem_ctrl.rdQLenPdf::84                   0                       # What read queue length does an incoming req see (Count)
system.loc_mem_ctrl.rdQLenPdf::85                   0                       # What read queue length does an incoming req see (Count)
system.loc_mem_ctrl.rdQLenPdf::86                   0                       # What read queue length does an incoming req see (Count)
system.loc_mem_ctrl.rdQLenPdf::87                   0                       # What read queue length does an incoming req see (Count)
system.loc_mem_ctrl.rdQLenPdf::88                   0                       # What read queue length does an incoming req see (Count)
system.loc_mem_ctrl.rdQLenPdf::89                   0                       # What read queue length does an incoming req see (Count)
system.loc_mem_ctrl.rdQLenPdf::90                   0                       # What read queue length does an incoming req see (Count)
system.loc_mem_ctrl.rdQLenPdf::91                   0                       # What read queue length does an incoming req see (Count)
system.loc_mem_ctrl.rdQLenPdf::92                   0                       # What read queue length does an incoming req see (Count)
system.loc_mem_ctrl.rdQLenPdf::93                   0                       # What read queue length does an incoming req see (Count)
system.loc_mem_ctrl.rdQLenPdf::94                   0                       # What read queue length does an incoming req see (Count)
system.loc_mem_ctrl.rdQLenPdf::95                   0                       # What read queue length does an incoming req see (Count)
system.loc_mem_ctrl.rdQLenPdf::96                   0                       # What read queue length does an incoming req see (Count)
system.loc_mem_ctrl.rdQLenPdf::97                   0                       # What read queue length does an incoming req see (Count)
system.loc_mem_ctrl.rdQLenPdf::98                   0                       # What read queue length does an incoming req see (Count)
system.loc_mem_ctrl.rdQLenPdf::99                   0                       # What read queue length does an incoming req see (Count)
system.loc_mem_ctrl.rdQLenPdf::100                  0                       # What read queue length does an incoming req see (Count)
system.loc_mem_ctrl.rdQLenPdf::101                  0                       # What read queue length does an incoming req see (Count)
system.loc_mem_ctrl.rdQLenPdf::102                  0                       # What read queue length does an incoming req see (Count)
system.loc_mem_ctrl.rdQLenPdf::103                  0                       # What read queue length does an incoming req see (Count)
system.loc_mem_ctrl.rdQLenPdf::104                  0                       # What read queue length does an incoming req see (Count)
system.loc_mem_ctrl.rdQLenPdf::105                  0                       # What read queue length does an incoming req see (Count)
system.loc_mem_ctrl.rdQLenPdf::106                  0                       # What read queue length does an incoming req see (Count)
system.loc_mem_ctrl.rdQLenPdf::107                  0                       # What read queue length does an incoming req see (Count)
system.loc_mem_ctrl.rdQLenPdf::108                  0                       # What read queue length does an incoming req see (Count)
system.loc_mem_ctrl.rdQLenPdf::109                  0                       # What read queue length does an incoming req see (Count)
system.loc_mem_ctrl.rdQLenPdf::110                  0                       # What read queue length does an incoming req see (Count)
system.loc_mem_ctrl.rdQLenPdf::111                  0                       # What read queue length does an incoming req see (Count)
system.loc_mem_ctrl.rdQLenPdf::112                  0                       # What read queue length does an incoming req see (Count)
system.loc_mem_ctrl.rdQLenPdf::113                  0                       # What read queue length does an incoming req see (Count)
system.loc_mem_ctrl.rdQLenPdf::114                  0                       # What read queue length does an incoming req see (Count)
system.loc_mem_ctrl.rdQLenPdf::115                  0                       # What read queue length does an incoming req see (Count)
system.loc_mem_ctrl.rdQLenPdf::116                  0                       # What read queue length does an incoming req see (Count)
system.loc_mem_ctrl.rdQLenPdf::117                  0                       # What read queue length does an incoming req see (Count)
system.loc_mem_ctrl.rdQLenPdf::118                  0                       # What read queue length does an incoming req see (Count)
system.loc_mem_ctrl.rdQLenPdf::119                  0                       # What read queue length does an incoming req see (Count)
system.loc_mem_ctrl.rdQLenPdf::120                  0                       # What read queue length does an incoming req see (Count)
system.loc_mem_ctrl.rdQLenPdf::121                  0                       # What read queue length does an incoming req see (Count)
system.loc_mem_ctrl.rdQLenPdf::122                  0                       # What read queue length does an incoming req see (Count)
system.loc_mem_ctrl.rdQLenPdf::123                  0                       # What read queue length does an incoming req see (Count)
system.loc_mem_ctrl.rdQLenPdf::124                  0                       # What read queue length does an incoming req see (Count)
system.loc_mem_ctrl.rdQLenPdf::125                  0                       # What read queue length does an incoming req see (Count)
system.loc_mem_ctrl.rdQLenPdf::126                  0                       # What read queue length does an incoming req see (Count)
system.loc_mem_ctrl.rdQLenPdf::127                  0                       # What read queue length does an incoming req see (Count)
system.loc_mem_ctrl.wrQLenPdf::0                 1095                       # What write queue length does an incoming req see (Count)
system.loc_mem_ctrl.wrQLenPdf::1                 1118                       # What write queue length does an incoming req see (Count)
system.loc_mem_ctrl.wrQLenPdf::2                 1150                       # What write queue length does an incoming req see (Count)
system.loc_mem_ctrl.wrQLenPdf::3                 1249                       # What write queue length does an incoming req see (Count)
system.loc_mem_ctrl.wrQLenPdf::4                 1795                       # What write queue length does an incoming req see (Count)
system.loc_mem_ctrl.wrQLenPdf::5                 3469                       # What write queue length does an incoming req see (Count)
system.loc_mem_ctrl.wrQLenPdf::6                 7308                       # What write queue length does an incoming req see (Count)
system.loc_mem_ctrl.wrQLenPdf::7                14791                       # What write queue length does an incoming req see (Count)
system.loc_mem_ctrl.wrQLenPdf::8                28194                       # What write queue length does an incoming req see (Count)
system.loc_mem_ctrl.wrQLenPdf::9                47964                       # What write queue length does an incoming req see (Count)
system.loc_mem_ctrl.wrQLenPdf::10               76601                       # What write queue length does an incoming req see (Count)
system.loc_mem_ctrl.wrQLenPdf::11              110138                       # What write queue length does an incoming req see (Count)
system.loc_mem_ctrl.wrQLenPdf::12              149843                       # What write queue length does an incoming req see (Count)
system.loc_mem_ctrl.wrQLenPdf::13              188920                       # What write queue length does an incoming req see (Count)
system.loc_mem_ctrl.wrQLenPdf::14              226875                       # What write queue length does an incoming req see (Count)
system.loc_mem_ctrl.wrQLenPdf::15              256010                       # What write queue length does an incoming req see (Count)
system.loc_mem_ctrl.wrQLenPdf::16              276726                       # What write queue length does an incoming req see (Count)
system.loc_mem_ctrl.wrQLenPdf::17              287113                       # What write queue length does an incoming req see (Count)
system.loc_mem_ctrl.wrQLenPdf::18              286975                       # What write queue length does an incoming req see (Count)
system.loc_mem_ctrl.wrQLenPdf::19              278180                       # What write queue length does an incoming req see (Count)
system.loc_mem_ctrl.wrQLenPdf::20              260911                       # What write queue length does an incoming req see (Count)
system.loc_mem_ctrl.wrQLenPdf::21              241803                       # What write queue length does an incoming req see (Count)
system.loc_mem_ctrl.wrQLenPdf::22              217980                       # What write queue length does an incoming req see (Count)
system.loc_mem_ctrl.wrQLenPdf::23              196463                       # What write queue length does an incoming req see (Count)
system.loc_mem_ctrl.wrQLenPdf::24              175254                       # What write queue length does an incoming req see (Count)
system.loc_mem_ctrl.wrQLenPdf::25              158235                       # What write queue length does an incoming req see (Count)
system.loc_mem_ctrl.wrQLenPdf::26              140883                       # What write queue length does an incoming req see (Count)
system.loc_mem_ctrl.wrQLenPdf::27              126056                       # What write queue length does an incoming req see (Count)
system.loc_mem_ctrl.wrQLenPdf::28              111373                       # What write queue length does an incoming req see (Count)
system.loc_mem_ctrl.wrQLenPdf::29               98612                       # What write queue length does an incoming req see (Count)
system.loc_mem_ctrl.wrQLenPdf::30               87256                       # What write queue length does an incoming req see (Count)
system.loc_mem_ctrl.wrQLenPdf::31               77816                       # What write queue length does an incoming req see (Count)
system.loc_mem_ctrl.wrQLenPdf::32               69628                       # What write queue length does an incoming req see (Count)
system.loc_mem_ctrl.wrQLenPdf::33               62553                       # What write queue length does an incoming req see (Count)
system.loc_mem_ctrl.wrQLenPdf::34               56544                       # What write queue length does an incoming req see (Count)
system.loc_mem_ctrl.wrQLenPdf::35               52014                       # What write queue length does an incoming req see (Count)
system.loc_mem_ctrl.wrQLenPdf::36               48221                       # What write queue length does an incoming req see (Count)
system.loc_mem_ctrl.wrQLenPdf::37               44309                       # What write queue length does an incoming req see (Count)
system.loc_mem_ctrl.wrQLenPdf::38               41050                       # What write queue length does an incoming req see (Count)
system.loc_mem_ctrl.wrQLenPdf::39               37468                       # What write queue length does an incoming req see (Count)
system.loc_mem_ctrl.wrQLenPdf::40               34456                       # What write queue length does an incoming req see (Count)
system.loc_mem_ctrl.wrQLenPdf::41               30753                       # What write queue length does an incoming req see (Count)
system.loc_mem_ctrl.wrQLenPdf::42               28076                       # What write queue length does an incoming req see (Count)
system.loc_mem_ctrl.wrQLenPdf::43               24669                       # What write queue length does an incoming req see (Count)
system.loc_mem_ctrl.wrQLenPdf::44               22265                       # What write queue length does an incoming req see (Count)
system.loc_mem_ctrl.wrQLenPdf::45               19760                       # What write queue length does an incoming req see (Count)
system.loc_mem_ctrl.wrQLenPdf::46               17983                       # What write queue length does an incoming req see (Count)
system.loc_mem_ctrl.wrQLenPdf::47               16276                       # What write queue length does an incoming req see (Count)
system.loc_mem_ctrl.wrQLenPdf::48               14887                       # What write queue length does an incoming req see (Count)
system.loc_mem_ctrl.wrQLenPdf::49               13733                       # What write queue length does an incoming req see (Count)
system.loc_mem_ctrl.wrQLenPdf::50               12846                       # What write queue length does an incoming req see (Count)
system.loc_mem_ctrl.wrQLenPdf::51               12122                       # What write queue length does an incoming req see (Count)
system.loc_mem_ctrl.wrQLenPdf::52               11375                       # What write queue length does an incoming req see (Count)
system.loc_mem_ctrl.wrQLenPdf::53               10901                       # What write queue length does an incoming req see (Count)
system.loc_mem_ctrl.wrQLenPdf::54               10301                       # What write queue length does an incoming req see (Count)
system.loc_mem_ctrl.wrQLenPdf::55                9675                       # What write queue length does an incoming req see (Count)
[...]
system.loc_mem_ctrl.dram_2.bwTotal::total   8961323787                       # Total bandwidth to/from this memory ((Byte/Second))
system.loc_mem_ctrl.dram_2.readBursts               0                       # Number of DRAM read bursts (Count)
system.loc_mem_ctrl.dram_2.writeBursts        2800386                       # Number of DRAM write bursts (Count)
system.loc_mem_ctrl.dram_2.perBankRdBursts::0            0                       # Per bank write bursts (Count)
system.loc_mem_ctrl.dram_2.perBankRdBursts::1            0                       # Per bank write bursts (Count)
system.loc_mem_ctrl.dram_2.perBankRdBursts::2            0                       # Per bank write bursts (Count)
system.loc_mem_ctrl.dram_2.perBankRdBursts::3            0                       # Per bank write bursts (Count)
system.loc_mem_ctrl.dram_2.perBankRdBursts::4            0                       # Per bank write bursts (Count)
system.loc_mem_ctrl.dram_2.perBankRdBursts::5            0                       # Per bank write bursts (Count)
system.loc_mem_ctrl.dram_2.perBankRdBursts::6            0                       # Per bank write bursts (Count)
system.loc_mem_ctrl.dram_2.perBankRdBursts::7            0                       # Per bank write bursts (Count)
system.loc_mem_ctrl.dram_2.perBankRdBursts::8            0                       # Per bank write bursts (Count)
system.loc_mem_ctrl.dram_2.perBankRdBursts::9            0                       # Per bank write bursts (Count)
system.loc_mem_ctrl.dram_2.perBankRdBursts::10            0                       # Per bank write bursts (Count)
system.loc_mem_ctrl.dram_2.perBankRdBursts::11            0                       # Per bank write bursts (Count)
system.loc_mem_ctrl.dram_2.perBankRdBursts::12            0                       # Per bank write bursts (Count)
system.loc_mem_ctrl.dram_2.perBankRdBursts::13            0                       # Per bank write bursts (Count)
system.loc_mem_ctrl.dram_2.perBankRdBursts::14            0                       # Per bank write bursts (Count)
system.loc_mem_ctrl.dram_2.perBankRdBursts::15            0                       # Per bank write bursts (Count)
system.loc_mem_ctrl.dram_2.perBankWrBursts::0       174058                       # Per bank write bursts (Count)
system.loc_mem_ctrl.dram_2.perBankWrBursts::1       176076                       # Per bank write bursts (Count)
system.loc_mem_ctrl.dram_2.perBankWrBursts::2       175934                       # Per bank write bursts (Count)
system.loc_mem_ctrl.dram_2.perBankWrBursts::3       174362                       # Per bank write bursts (Count)
system.loc_mem_ctrl.dram_2.perBankWrBursts::4       175118                       # Per bank write bursts (Count)
system.loc_mem_ctrl.dram_2.perBankWrBursts::5       175436                       # Per bank write bursts (Count)
system.loc_mem_ctrl.dram_2.perBankWrBursts::6       174818                       # Per bank write bursts (Count)
system.loc_mem_ctrl.dram_2.perBankWrBursts::7       175084                       # Per bank write bursts (Count)
system.loc_mem_ctrl.dram_2.perBankWrBursts::8       175170                       # Per bank write bursts (Count)
system.loc_mem_ctrl.dram_2.perBankWrBursts::9       174164                       # Per bank write bursts (Count)
system.loc_mem_ctrl.dram_2.perBankWrBursts::10       174458                       # Per bank write bursts (Count)
system.loc_mem_ctrl.dram_2.perBankWrBursts::11       175202                       # Per bank write bursts (Count)
system.loc_mem_ctrl.dram_2.perBankWrBursts::12       175424                       # Per bank write bursts (Count)
system.loc_mem_ctrl.dram_2.perBankWrBursts::13       174348                       # Per bank write bursts (Count)
system.loc_mem_ctrl.dram_2.perBankWrBursts::14       175110                       # Per bank write bursts (Count)
system.loc_mem_ctrl.dram_2.perBankWrBursts::15       175624                       # Per bank write bursts (Count)
system.loc_mem_ctrl.dram_2.totQLat                  0                       # Total ticks spent queuing (Tick)
system.loc_mem_ctrl.dram_2.totBusLat                0                       # Total ticks spent in databus transfers (Tick)
system.loc_mem_ctrl.dram_2.totMemAccLat             0                       # Total ticks spent from burst creation until serviced by the DRAM (Tick)
system.loc_mem_ctrl.dram_2.avgQLat                nan                       # Average queueing delay per DRAM burst ((Tick/Count))
system.loc_mem_ctrl.dram_2.avgBusLat              nan                       # Average bus latency per DRAM burst ((Tick/Count))
system.loc_mem_ctrl.dram_2.avgMemAccLat           nan                       # Average memory access latency per DRAM burst ((Tick/Count))
system.loc_mem_ctrl.dram_2.readRowHits              0                       # Number of row buffer hits during reads (Count)
system.loc_mem_ctrl.dram_2.writeRowHits       1398588                       # Number of row buffer hits during writes (Count)
system.loc_mem_ctrl.dram_2.readRowHitRate          nan                       # Row buffer hit rate for reads (Ratio)
system.loc_mem_ctrl.dram_2.writeRowHitRate        49.94                       # Row buffer hit rate for writes (Ratio)
system.loc_mem_ctrl.dram_2.bytesPerActivate::samples      1401798                       # Bytes accessed per row activation (Byte)
system.loc_mem_ctrl.dram_2.bytesPerActivate::mean    63.926723                       # Bytes accessed per row activation (Byte)
system.loc_mem_ctrl.dram_2.bytesPerActivate::gmean    63.897486                       # Bytes accessed per row activation (Byte)
system.loc_mem_ctrl.dram_2.bytesPerActivate::stdev     1.574726                       # Bytes accessed per row activation (Byte)
system.loc_mem_ctrl.dram_2.bytesPerActivate::32-47         3274      0.23%      0.23% # Bytes accessed per row activation (Byte)
system.loc_mem_ctrl.dram_2.bytesPerActivate::64-79      1398492     99.76%    100.00% # Bytes accessed per row activation (Byte)
system.loc_mem_ctrl.dram_2.bytesPerActivate::128-143           32      0.00%    100.00% # Bytes accessed per row activation (Byte)
system.loc_mem_ctrl.dram_2.bytesPerActivate::total      1401798                       # Bytes accessed per row activation (Byte)
system.loc_mem_ctrl.dram_2.bytesRead                0                       # Total bytes read (Byte)
system.loc_mem_ctrl.dram_2.bytesWritten      89612352                       # Total bytes written (Byte)
system.loc_mem_ctrl.dram_2.avgRdBW                  0                       # Average DRAM read bandwidth in MiBytes/s ((Byte/Second))
system.loc_mem_ctrl.dram_2.avgWrBW        8961.234187                       # Average DRAM write bandwidth in MiBytes/s ((Byte/Second))
system.loc_mem_ctrl.dram_2.peakBW            16000.00                       # Theoretical peak bandwidth in MiByte/s ((Byte/Second))
system.loc_mem_ctrl.dram_2.busUtil              56.01                       # Data bus utilization in percentage (Ratio)
system.loc_mem_ctrl.dram_2.busUtilRead           0.00                       # Data bus utilization in percentage for reads (Ratio)
system.loc_mem_ctrl.dram_2.busUtilWrite         56.01                       # Data bus utilization in percentage for writes (Ratio)
system.loc_mem_ctrl.dram_2.pageHitRate          49.94                       # Row buffer hit rate, read and write combined (Ratio)
system.loc_mem_ctrl.dram_2.power_state.pwrStateResidencyTicks::UNDEFINED  10000001130                       # Cumulative time (in ticks) in various power states (Tick)
system.loc_mem_ctrl.dram_2.rank0.actEnergy            0                       # Energy for activate commands per rank (pJ) (Joule)
system.loc_mem_ctrl.dram_2.rank0.preEnergy            0                       # Energy for precharge commands per rank (pJ) (Joule)
system.loc_mem_ctrl.dram_2.rank0.readEnergy            0                       # Energy for read commands per rank (pJ) (Joule)
system.loc_mem_ctrl.dram_2.rank0.writeEnergy            0                       # Energy for write commands per rank (pJ) (Joule)
system.loc_mem_ctrl.dram_2.rank0.refreshEnergy            0                       # Energy for refresh commands per rank (pJ) (Joule)
system.loc_mem_ctrl.dram_2.rank0.actBackEnergy            0                       # Energy for active background per rank (pJ) (Joule)
system.loc_mem_ctrl.dram_2.rank0.preBackEnergy            0                       # Energy for precharge background per rank (pJ) (Joule)
system.loc_mem_ctrl.dram_2.rank0.actPowerDownEnergy            0                       # Energy for active power-down per rank (pJ) (Joule)
system.loc_mem_ctrl.dram_2.rank0.prePowerDownEnergy            0                       # Energy for precharge power-down per rank (pJ) (Joule)
system.loc_mem_ctrl.dram_2.rank0.selfRefreshEnergy            0                       # Energy for self refresh per rank (pJ) (Joule)
system.loc_mem_ctrl.dram_2.rank0.totalEnergy            0                       # Total energy per rank (pJ) (Joule)
system.loc_mem_ctrl.dram_2.rank0.averagePower            0                       # Core power per rank (mW) (Watt)
system.loc_mem_ctrl.dram_2.rank0.totalIdleTime            0                       # Total Idle time Per DRAM Rank (Tick)
system.loc_mem_ctrl.dram_2.rank0.pwrStateTime::IDLE    682502146                       # Time in different power states (Tick)
system.loc_mem_ctrl.dram_2.rank0.pwrStateTime::REF    566060000                       # Time in different power states (Tick)
system.loc_mem_ctrl.dram_2.rank0.pwrStateTime::SREF            0                       # Time in different power states (Tick)
system.loc_mem_ctrl.dram_2.rank0.pwrStateTime::PRE_PDN            0                       # Time in different power states (Tick)
system.loc_mem_ctrl.dram_2.rank0.pwrStateTime::ACT   8751438984                       # Time in different power states (Tick)
system.loc_mem_ctrl.dram_2.rank0.pwrStateTime::ACT_PDN            0                       # Time in different power states (Tick)
system.loc_mem_ctrl.power_state.pwrStateResidencyTicks::UNDEFINED  10000001130                       # Cumulative time (in ticks) in various power states (Tick)
system.mem_ctrl.bytesRead::generator        179403776                       # Number of bytes read from this memory (Byte)
system.mem_ctrl.bytesRead::total            179403776                       # Number of bytes read from this memory (Byte)
system.mem_ctrl.numReads::generator           2803184                       # Number of read requests responded to by this memory (Count)
system.mem_ctrl.numReads::total               2803184                       # Number of read requests responded to by this memory (Count)
system.mem_ctrl.bwRead::generator         17940375573                       # Total read bandwidth from this memory ((Byte/Second))
system.mem_ctrl.bwRead::total             17940375573                       # Total read bandwidth from this memory ((Byte/Second))
system.mem_ctrl.bwTotal::generator        17940375573                       # Total bandwidth to/from this memory ((Byte/Second))
system.mem_ctrl.bwTotal::total            17940375573                       # Total bandwidth to/from this memory ((Byte/Second))
system.mem_ctrl.readReqs                      2803437                       # Number of read requests accepted (Count)
system.mem_ctrl.writeReqs                           0                       # Number of write requests accepted (Count)
system.mem_ctrl.servicedByWrQ                       0                       # Number of controller read bursts serviced by the write queue (Count)
system.mem_ctrl.mergedWrBursts                      0                       # Number of controller write bursts merged with an existing one (Count)
system.mem_ctrl.numRdRetry                    2802327                       # Number of times read queue was full causing retry (Count)
system.mem_ctrl.numWrRetry                          0                       # Number of times write queue was full causing retry (Count)
system.mem_ctrl.readPktSize::0                      0                       # Read request sizes (log2) (Count)
system.mem_ctrl.readPktSize::1                      0                       # Read request sizes (log2) (Count)
system.mem_ctrl.readPktSize::2                      0                       # Read request sizes (log2) (Count)
system.mem_ctrl.readPktSize::3                      0                       # Read request sizes (log2) (Count)
system.mem_ctrl.readPktSize::4                      0                       # Read request sizes (log2) (Count)
system.mem_ctrl.readPktSize::5                      0                       # Read request sizes (log2) (Count)
system.mem_ctrl.readPktSize::6                2803437                       # Read request sizes (log2) (Count)
system.mem_ctrl.writePktSize::0                     0                       # Write request sizes (log2) (Count)
system.mem_ctrl.writePktSize::1                     0                       # Write request sizes (log2) (Count)
system.mem_ctrl.writePktSize::2                     0                       # Write request sizes (log2) (Count)
system.mem_ctrl.writePktSize::3                     0                       # Write request sizes (log2) (Count)
system.mem_ctrl.writePktSize::4                     0                       # Write request sizes (log2) (Count)
system.mem_ctrl.writePktSize::5                     0                       # Write request sizes (log2) (Count)
system.mem_ctrl.writePktSize::6                     0                       # Write request sizes (log2) (Count)
system.mem_ctrl.bytesReadWrQ                        0                       # Total number of bytes read from write queue (Byte)
system.mem_ctrl.bytesReadSys                179419968                       # Total read bytes from the system interface side (Byte)
system.mem_ctrl.bytesWrittenSys                     0                       # Total written bytes from the system interface side (Byte)
system.mem_ctrl.avgRdBWSys               17941994772.55459213                       # Average system read bandwidth in Byte/s ((Byte/Second))
system.mem_ctrl.avgWrBWSys                 0.00000000                       # Average system write bandwidth in Byte/s ((Byte/Second))
system.mem_ctrl.totGap                   11325415400086550528                       # Total gap between requests (Tick)
system.mem_ctrl.avgGap                   4039832320143.65                       # Average gap between requests ((Tick/Count))
system.mem_ctrl.avgORBLen                    255.9960                       # Average ORB length ((Count/Tick))
system.mem_ctrl.avgLocRdQLenStrt                 0.00                       # Average local read queue length ((Count/Tick))
system.mem_ctrl.avgLocWrQLenStrt                 0.61                       # Average local write queue length ((Count/Tick))
system.mem_ctrl.avgFarRdQLenStrt               182.22                       # Average far read queue length ((Count/Tick))
system.mem_ctrl.avgFarWrQLenStrt                 0.00                       # Average far write queue length ((Count/Tick))
system.mem_ctrl.avgLocRdQLenEnq                  0.00                       # Average local read queue length when enqueuing ((Count/Tick))
system.mem_ctrl.avgLocWrQLenEnq                  2.11                       # Average local write queue length when enqueuing ((Count/Tick))
system.mem_ctrl.avgFarRdQLenEnq                183.22                       # Average far read queue length when enqueuing ((Count/Tick))
system.mem_ctrl.avgFarWrQLenEnq                  0.00                       # Average far write queue length when enqueuing ((Count/Tick))
system.mem_ctrl.numWrBacks                          0                       # Total number of write backs from DRAM cache to main memory (Unspecified)
system.mem_ctrl.totNumConf                        711                       # Total number of packets conflicted on DRAM cache (Unspecified)
system.mem_ctrl.totNumORBFull                 2802327                       # Total number of packets ORB full (Unspecified)
system.mem_ctrl.totNumCRBFull                       0                       # Total number of packets conflicted yet couldn't enter confBuffer (Unspecified)
system.mem_ctrl.maxNumConf                          2                       # Maximum number of packets conflicted on DRAM cache (Unspecified)
system.mem_ctrl.sentLocRdPort                       0                       # stat (Unspecified)
system.mem_ctrl.sentLocWrPort                 2803184                       # stat (Unspecified)
system.mem_ctrl.failedLocRdPort                     0                       # stat (Unspecified)
system.mem_ctrl.failedLocWrPort                281575                       # stat (Unspecified)
system.mem_ctrl.recvdRdPort                         0                       # stat (Unspecified)
system.mem_ctrl.sentFarRdPort                 2803254                       # stat (Unspecified)
system.mem_ctrl.sentFarWrPort                       0                       # stat (Unspecified)
system.mem_ctrl.failedFarRdPort               3932372                       # stat (Unspecified)
system.mem_ctrl.failedFarWrPort                     0                       # stat (Unspecified)
system.mem_ctrl.totPktsServiceTime         2558735638                       # stat (Unspecified)
system.mem_ctrl.totPktsORBTime           14014976501725                       # stat (Unspecified)
system.mem_ctrl.totTimeFarRdtoSend         1823672097                       # stat (Unspecified)
system.mem_ctrl.totTimeFarRdtoRecv          694433872                       # stat (Unspecified)
system.mem_ctrl.totTimeFarWrtoSend                  0                       # stat (Unspecified)
system.mem_ctrl.totTimeInLocRead                    0                       # stat (Unspecified)
system.mem_ctrl.totTimeInLocWrite            38895170                       # stat (Unspecified)
system.mem_ctrl.totTimeInFarRead           2519424641                       # stat (Unspecified)
system.mem_ctrl.numTotHits                          0                       # stat (Unspecified)
system.mem_ctrl.numTotMisses                  2803437                       # stat (Unspecified)
system.mem_ctrl.numColdMisses                  976181                       # stat (Unspecified)
system.mem_ctrl.numHotMisses                  1827256                       # stat (Unspecified)
system.mem_ctrl.numRdMissClean                2803437                       # stat (Unspecified)
system.mem_ctrl.numRdMissDirty                      0                       # stat (Unspecified)
system.mem_ctrl.numRdHit                            0                       # stat (Unspecified)
system.mem_ctrl.numWrMissClean                      0                       # stat (Unspecified)
system.mem_ctrl.numWrMissDirty                      0                       # stat (Unspecified)
system.mem_ctrl.numWrHit                            0                       # stat (Unspecified)
system.mem_ctrl.numRdHitDirty                       0                       # stat (Unspecified)
system.mem_ctrl.numRdHitClean                       0                       # stat (Unspecified)
system.mem_ctrl.numWrHitDirty                       0                       # stat (Unspecified)
system.mem_ctrl.numWrHitClean                       0                       # stat (Unspecified)
system.mem_ctrl.power_state.pwrStateResidencyTicks::UNDEFINED  10000001130                       # Cumulative time (in ticks) in various power states (Tick)
system.workload.inst.arm                            0                       # number of arm instructions executed (Count)
system.workload.inst.quiesce                        0                       # number of quiesce instructions executed (Count)

---------- End Simulation Statistics   ----------
