
---------- Begin Simulation Statistics ----------
simSeconds                                   0.116735                       # Number of seconds simulated (Second)
simTicks                                 116734793251                       # Number of ticks simulated (Tick)
finalTick                                156031257110751                       # Number of ticks from beginning of simulation (restored from checkpoints and never reset) (Tick)
simFreq                                  1000000000000                       # The number of ticks per simulated second ((Tick/Second))
hostSeconds                                    500.82                       # Real time elapsed on the host (Second)
hostTickRate                                233087348                       # The number of ticks simulated per host second (ticks/s) ((Tick/Second))
hostMemory                                    7324784                       # Number of bytes of host memory used (Byte)
simInsts                                  38414481139                       # Number of instructions simulated (Count)
simOps                                    38485398124                       # Number of ops (including micro ops) simulated (Count)
hostInstRate                                 76703154                       # Simulator instruction rate (inst/s) ((Count/Second))
hostOpRate                                   76844754                       # Simulator op (including micro ops) rate (op/s) ((Count/Second))
system.work_item_type0::samples                     1                       # Run time stat forwork_item_type0 (Unspecified)
system.work_item_type0::mean             116734793251                       # Run time stat forwork_item_type0 (Unspecified)
system.work_item_type0::gmean            116734793251.000183                       # Run time stat forwork_item_type0 (Unspecified)
system.work_item_type0::stdev                     nan                       # Run time stat forwork_item_type0 (Unspecified)
system.work_item_type0::0-8.58993e+09               0      0.00%      0.00% # Run time stat forwork_item_type0 (Unspecified)
system.work_item_type0::8.58993e+09-1.71799e+10            0      0.00%      0.00% # Run time stat forwork_item_type0 (Unspecified)
system.work_item_type0::1.71799e+10-2.57698e+10            0      0.00%      0.00% # Run time stat forwork_item_type0 (Unspecified)
system.work_item_type0::2.57698e+10-3.43597e+10            0      0.00%      0.00% # Run time stat forwork_item_type0 (Unspecified)
system.work_item_type0::3.43597e+10-4.29497e+10            0      0.00%      0.00% # Run time stat forwork_item_type0 (Unspecified)
system.work_item_type0::4.29497e+10-5.15396e+10            0      0.00%      0.00% # Run time stat forwork_item_type0 (Unspecified)
system.work_item_type0::5.15396e+10-6.01295e+10            0      0.00%      0.00% # Run time stat forwork_item_type0 (Unspecified)
system.work_item_type0::6.01295e+10-6.87195e+10            0      0.00%      0.00% # Run time stat forwork_item_type0 (Unspecified)
system.work_item_type0::6.87195e+10-7.73094e+10            0      0.00%      0.00% # Run time stat forwork_item_type0 (Unspecified)
system.work_item_type0::7.73094e+10-8.58993e+10            0      0.00%      0.00% # Run time stat forwork_item_type0 (Unspecified)
system.work_item_type0::8.58993e+10-9.44893e+10            0      0.00%      0.00% # Run time stat forwork_item_type0 (Unspecified)
system.work_item_type0::9.44893e+10-1.03079e+11            0      0.00%      0.00% # Run time stat forwork_item_type0 (Unspecified)
system.work_item_type0::1.03079e+11-1.11669e+11            0      0.00%      0.00% # Run time stat forwork_item_type0 (Unspecified)
system.work_item_type0::1.11669e+11-1.20259e+11            1    100.00%    100.00% # Run time stat forwork_item_type0 (Unspecified)
system.work_item_type0::1.20259e+11-1.28849e+11            0      0.00%    100.00% # Run time stat forwork_item_type0 (Unspecified)
system.work_item_type0::1.28849e+11-1.37439e+11            0      0.00%    100.00% # Run time stat forwork_item_type0 (Unspecified)
system.work_item_type0::1.37439e+11-1.46029e+11            0      0.00%    100.00% # Run time stat forwork_item_type0 (Unspecified)
system.work_item_type0::1.46029e+11-1.54619e+11            0      0.00%    100.00% # Run time stat forwork_item_type0 (Unspecified)
system.work_item_type0::1.54619e+11-1.63209e+11            0      0.00%    100.00% # Run time stat forwork_item_type0 (Unspecified)
system.work_item_type0::1.63209e+11-1.71799e+11            0      0.00%    100.00% # Run time stat forwork_item_type0 (Unspecified)
system.work_item_type0::total                       1                       # Run time stat forwork_item_type0 (Unspecified)
system.atomicCpu0.numCycles                         0                       # Number of cpu cycles simulated (Cycle)
system.atomicCpu0.numWorkItemsStarted               0                       # Number of work items this cpu started (Count)
system.atomicCpu0.numWorkItemsCompleted             0                       # Number of work items this cpu completed (Count)
system.atomicCpu0.exec_context.thread_0.numInsts            0                       # Number of instructions committed (Count)
system.atomicCpu0.exec_context.thread_0.numOps            0                       # Number of ops (including micro ops) committed (Count)
system.atomicCpu0.exec_context.thread_0.numIntAluAccesses            0                       # Number of integer alu accesses (Count)
system.atomicCpu0.exec_context.thread_0.numFpAluAccesses            0                       # Number of float alu accesses (Count)
system.atomicCpu0.exec_context.thread_0.numVecAluAccesses            0                       # Number of vector alu accesses (Count)
system.atomicCpu0.exec_context.thread_0.numCallsReturns            0                       # Number of times a function call or return occured (Count)
system.atomicCpu0.exec_context.thread_0.numCondCtrlInsts            0                       # Number of instructions that are conditional controls (Count)
system.atomicCpu0.exec_context.thread_0.numIntInsts            0                       # Number of integer instructions (Count)
system.atomicCpu0.exec_context.thread_0.numFpInsts            0                       # Number of float instructions (Count)
system.atomicCpu0.exec_context.thread_0.numVecInsts            0                       # Number of vector instructions (Count)
system.atomicCpu0.exec_context.thread_0.numIntRegReads            0                       # Number of times the integer registers were read (Count)
system.atomicCpu0.exec_context.thread_0.numIntRegWrites            0                       # Number of times the integer registers were written (Count)
system.atomicCpu0.exec_context.thread_0.numFpRegReads            0                       # Number of times the floating registers were read (Count)
system.atomicCpu0.exec_context.thread_0.numFpRegWrites            0                       # Number of times the floating registers were written (Count)
system.atomicCpu0.exec_context.thread_0.numVecRegReads            0                       # Number of times the vector registers were read (Count)
system.atomicCpu0.exec_context.thread_0.numVecRegWrites            0                       # Number of times the vector registers were written (Count)
system.atomicCpu0.exec_context.thread_0.numVecPredRegReads            0                       # Number of times the predicate registers were read (Count)
system.atomicCpu0.exec_context.thread_0.numVecPredRegWrites            0                       # Number of times the predicate registers were written (Count)
system.atomicCpu0.exec_context.thread_0.numMiscRegReads            0                       # Number of times the Misc registers were read (Count)
system.atomicCpu0.exec_context.thread_0.numMiscRegWrites            0                       # Number of times the Misc registers were written (Count)
system.atomicCpu0.exec_context.thread_0.numMemRefs            0                       # Number of memory refs (Count)
system.atomicCpu0.exec_context.thread_0.numLoadInsts            0                       # Number of load instructions (Count)
system.atomicCpu0.exec_context.thread_0.numStoreInsts            0                       # Number of store instructions (Count)
system.atomicCpu0.exec_context.thread_0.numIdleCycles            0                       # Number of idle cycles (Cycle)
system.atomicCpu0.exec_context.thread_0.numBusyCycles            0                       # Number of busy cycles (Cycle)
system.atomicCpu0.exec_context.thread_0.notIdleFraction            0                       # Percentage of non-idle cycles (Ratio)
system.atomicCpu0.exec_context.thread_0.idleFraction            1                       # Percentage of idle cycles (Ratio)
system.atomicCpu0.exec_context.thread_0.statExecutedInstType::No_OpClass            0                       # Class of executed instruction. (Count)
system.atomicCpu0.exec_context.thread_0.statExecutedInstType::IntAlu            0                       # Class of executed instruction. (Count)
system.atomicCpu0.exec_context.thread_0.statExecutedInstType::IntMult            0                       # Class of executed instruction. (Count)
system.atomicCpu0.exec_context.thread_0.statExecutedInstType::IntDiv            0                       # Class of executed instruction. (Count)
system.atomicCpu0.exec_context.thread_0.statExecutedInstType::FloatAdd            0                       # Class of executed instruction. (Count)
system.atomicCpu0.exec_context.thread_0.statExecutedInstType::FloatCmp            0                       # Class of executed instruction. (Count)
system.atomicCpu0.exec_context.thread_0.statExecutedInstType::FloatCvt            0                       # Class of executed instruction. (Count)
system.atomicCpu0.exec_context.thread_0.statExecutedInstType::FloatMult            0                       # Class of executed instruction. (Count)
system.atomicCpu0.exec_context.thread_0.statExecutedInstType::FloatMultAcc            0                       # Class of executed instruction. (Count)
system.atomicCpu0.exec_context.thread_0.statExecutedInstType::FloatDiv            0                       # Class of executed instruction. (Count)
system.atomicCpu0.exec_context.thread_0.statExecutedInstType::FloatMisc            0                       # Class of executed instruction. (Count)
system.atomicCpu0.exec_context.thread_0.statExecutedInstType::FloatSqrt            0                       # Class of executed instruction. (Count)
system.atomicCpu0.exec_context.thread_0.statExecutedInstType::SimdAdd            0                       # Class of executed instruction. (Count)
system.atomicCpu0.exec_context.thread_0.statExecutedInstType::SimdAddAcc            0                       # Class of executed instruction. (Count)
system.atomicCpu0.exec_context.thread_0.statExecutedInstType::SimdAlu            0                       # Class of executed instruction. (Count)
system.atomicCpu0.exec_context.thread_0.statExecutedInstType::SimdCmp            0                       # Class of executed instruction. (Count)
system.atomicCpu0.exec_context.thread_0.statExecutedInstType::SimdCvt            0                       # Class of executed instruction. (Count)
system.atomicCpu0.exec_context.thread_0.statExecutedInstType::SimdMisc            0                       # Class of executed instruction. (Count)
system.atomicCpu0.exec_context.thread_0.statExecutedInstType::SimdMult            0                       # Class of executed instruction. (Count)
system.atomicCpu0.exec_context.thread_0.statExecutedInstType::SimdMultAcc            0                       # Class of executed instruction. (Count)
system.atomicCpu0.exec_context.thread_0.statExecutedInstType::SimdShift            0                       # Class of executed instruction. (Count)
system.atomicCpu0.exec_context.thread_0.statExecutedInstType::SimdShiftAcc            0                       # Class of executed instruction. (Count)
system.atomicCpu0.exec_context.thread_0.statExecutedInstType::SimdDiv            0                       # Class of executed instruction. (Count)
system.atomicCpu0.exec_context.thread_0.statExecutedInstType::SimdSqrt            0                       # Class of executed instruction. (Count)
system.atomicCpu0.exec_context.thread_0.statExecutedInstType::SimdFloatAdd            0                       # Class of executed instruction. (Count)
system.atomicCpu0.exec_context.thread_0.statExecutedInstType::SimdFloatAlu            0                       # Class of executed instruction. (Count)
system.atomicCpu0.exec_context.thread_0.statExecutedInstType::SimdFloatCmp            0                       # Class of executed instruction. (Count)
system.atomicCpu0.exec_context.thread_0.statExecutedInstType::SimdFloatCvt            0                       # Class of executed instruction. (Count)
system.atomicCpu0.exec_context.thread_0.statExecutedInstType::SimdFloatDiv            0                       # Class of executed instruction. (Count)
system.atomicCpu0.exec_context.thread_0.statExecutedInstType::SimdFloatMisc            0                       # Class of executed instruction. (Count)
system.atomicCpu0.exec_context.thread_0.statExecutedInstType::SimdFloatMult            0                       # Class of executed instruction. (Count)
system.atomicCpu0.exec_context.thread_0.statExecutedInstType::SimdFloatMultAcc            0                       # Class of executed instruction. (Count)
system.atomicCpu0.exec_context.thread_0.statExecutedInstType::SimdFloatSqrt            0                       # Class of executed instruction. (Count)
system.atomicCpu0.exec_context.thread_0.statExecutedInstType::SimdReduceAdd            0                       # Class of executed instruction. (Count)
system.atomicCpu0.exec_context.thread_0.statExecutedInstType::SimdReduceAlu            0                       # Class of executed instruction. (Count)
system.atomicCpu0.exec_context.thread_0.statExecutedInstType::SimdReduceCmp            0                       # Class of executed instruction. (Count)
system.atomicCpu0.exec_context.thread_0.statExecutedInstType::SimdFloatReduceAdd            0                       # Class of executed instruction. (Count)
system.atomicCpu0.exec_context.thread_0.statExecutedInstType::SimdFloatReduceCmp            0                       # Class of executed instruction. (Count)
system.atomicCpu0.exec_context.thread_0.statExecutedInstType::SimdAes            0                       # Class of executed instruction. (Count)
system.atomicCpu0.exec_context.thread_0.statExecutedInstType::SimdAesMix            0                       # Class of executed instruction. (Count)
system.atomicCpu0.exec_context.thread_0.statExecutedInstType::SimdSha1Hash            0                       # Class of executed instruction. (Count)
system.atomicCpu0.exec_context.thread_0.statExecutedInstType::SimdSha1Hash2            0                       # Class of executed instruction. (Count)
system.atomicCpu0.exec_context.thread_0.statExecutedInstType::SimdSha256Hash            0                       # Class of executed instruction. (Count)
system.atomicCpu0.exec_context.thread_0.statExecutedInstType::SimdSha256Hash2            0                       # Class of executed instruction. (Count)
system.atomicCpu0.exec_context.thread_0.statExecutedInstType::SimdShaSigma2            0                       # Class of executed instruction. (Count)
system.atomicCpu0.exec_context.thread_0.statExecutedInstType::SimdShaSigma3            0                       # Class of executed instruction. (Count)
system.atomicCpu0.exec_context.thread_0.statExecutedInstType::SimdPredAlu            0                       # Class of executed instruction. (Count)
system.atomicCpu0.exec_context.thread_0.statExecutedInstType::MemRead            0                       # Class of executed instruction. (Count)
system.atomicCpu0.exec_context.thread_0.statExecutedInstType::MemWrite            0                       # Class of executed instruction. (Count)
system.atomicCpu0.exec_context.thread_0.statExecutedInstType::FloatMemRead            0                       # Class of executed instruction. (Count)
system.atomicCpu0.exec_context.thread_0.statExecutedInstType::FloatMemWrite            0                       # Class of executed instruction. (Count)
system.atomicCpu0.exec_context.thread_0.statExecutedInstType::IprAccess            0                       # Class of executed instruction. (Count)
system.atomicCpu0.exec_context.thread_0.statExecutedInstType::InstPrefetch            0                       # Class of executed instruction. (Count)
system.atomicCpu0.exec_context.thread_0.statExecutedInstType::total            0                       # Class of executed instruction. (Count)
system.atomicCpu0.mmu.dtb.rdAccesses                0                       # TLB accesses on read requests (Count)
system.atomicCpu0.mmu.dtb.wrAccesses                0                       # TLB accesses on write requests (Count)
system.atomicCpu0.mmu.dtb.rdMisses                  0                       # TLB misses on read requests (Count)
system.atomicCpu0.mmu.dtb.wrMisses                  0                       # TLB misses on write requests (Count)
system.atomicCpu0.mmu.dtb.walker.power_state.pwrStateResidencyTicks::UNDEFINED 156031257110751                       # Cumulative time (in ticks) in various power states (Tick)
system.atomicCpu0.mmu.itb.rdAccesses                0                       # TLB accesses on read requests (Count)
system.atomicCpu0.mmu.itb.wrAccesses                0                       # TLB accesses on write requests (Count)
system.atomicCpu0.mmu.itb.rdMisses                  0                       # TLB misses on read requests (Count)
system.atomicCpu0.mmu.itb.wrMisses                  0                       # TLB misses on write requests (Count)
system.atomicCpu0.mmu.itb.walker.power_state.pwrStateResidencyTicks::UNDEFINED 156031257110751                       # Cumulative time (in ticks) in various power states (Tick)
system.atomicCpu0.power_state.pwrStateResidencyTicks::OFF 156031257110751                       # Cumulative time (in ticks) in various power states (Tick)
system.atomicCpu0.thread_0.numInsts                 0                       # Number of Instructions committed (Count)
system.atomicCpu0.thread_0.numOps                   0                       # Number of Ops committed (Count)
system.atomicCpu0.thread_0.numMemRefs               0                       # Number of Memory References (Count)
system.atomicCpu1.numCycles                         0                       # Number of cpu cycles simulated (Cycle)
system.atomicCpu1.numWorkItemsStarted               0                       # Number of work items this cpu started (Count)
system.atomicCpu1.numWorkItemsCompleted             0                       # Number of work items this cpu completed (Count)
system.atomicCpu1.exec_context.thread_0.numInsts            0                       # Number of instructions committed (Count)
system.atomicCpu1.exec_context.thread_0.numOps            0                       # Number of ops (including micro ops) committed (Count)
system.atomicCpu1.exec_context.thread_0.numIntAluAccesses            0                       # Number of integer alu accesses (Count)
system.atomicCpu1.exec_context.thread_0.numFpAluAccesses            0                       # Number of float alu accesses (Count)
system.atomicCpu1.exec_context.thread_0.numVecAluAccesses            0                       # Number of vector alu accesses (Count)
system.atomicCpu1.exec_context.thread_0.numCallsReturns            0                       # Number of times a function call or return occured (Count)
system.atomicCpu1.exec_context.thread_0.numCondCtrlInsts            0                       # Number of instructions that are conditional controls (Count)
system.atomicCpu1.exec_context.thread_0.numIntInsts            0                       # Number of integer instructions (Count)
system.atomicCpu1.exec_context.thread_0.numFpInsts            0                       # Number of float instructions (Count)
system.atomicCpu1.exec_context.thread_0.numVecInsts            0                       # Number of vector instructions (Count)
system.atomicCpu1.exec_context.thread_0.numIntRegReads            0                       # Number of times the integer registers were read (Count)
system.atomicCpu1.exec_context.thread_0.numIntRegWrites            0                       # Number of times the integer registers were written (Count)
system.atomicCpu1.exec_context.thread_0.numFpRegReads            0                       # Number of times the floating registers were read (Count)
system.atomicCpu1.exec_context.thread_0.numFpRegWrites            0                       # Number of times the floating registers were written (Count)
system.atomicCpu1.exec_context.thread_0.numVecRegReads            0                       # Number of times the vector registers were read (Count)
system.atomicCpu1.exec_context.thread_0.numVecRegWrites            0                       # Number of times the vector registers were written (Count)
system.atomicCpu1.exec_context.thread_0.numVecPredRegReads            0                       # Number of times the predicate registers were read (Count)
system.atomicCpu1.exec_context.thread_0.numVecPredRegWrites            0                       # Number of times the predicate registers were written (Count)
system.atomicCpu1.exec_context.thread_0.numMiscRegReads            0                       # Number of times the Misc registers were read (Count)
system.atomicCpu1.exec_context.thread_0.numMiscRegWrites            0                       # Number of times the Misc registers were written (Count)
system.atomicCpu1.exec_context.thread_0.numMemRefs            0                       # Number of memory refs (Count)
system.atomicCpu1.exec_context.thread_0.numLoadInsts            0                       # Number of load instructions (Count)
system.atomicCpu1.exec_context.thread_0.numStoreInsts            0                       # Number of store instructions (Count)
system.atomicCpu1.exec_context.thread_0.numIdleCycles            0                       # Number of idle cycles (Cycle)
system.atomicCpu1.exec_context.thread_0.numBusyCycles            0                       # Number of busy cycles (Cycle)
system.atomicCpu1.exec_context.thread_0.notIdleFraction            0                       # Percentage of non-idle cycles (Ratio)
system.atomicCpu1.exec_context.thread_0.idleFraction            1                       # Percentage of idle cycles (Ratio)
system.atomicCpu1.exec_context.thread_0.statExecutedInstType::No_OpClass            0                       # Class of executed instruction. (Count)
system.atomicCpu1.exec_context.thread_0.statExecutedInstType::IntAlu            0                       # Class of executed instruction. (Count)
system.atomicCpu1.exec_context.thread_0.statExecutedInstType::IntMult            0                       # Class of executed instruction. (Count)
system.atomicCpu1.exec_context.thread_0.statExecutedInstType::IntDiv            0                       # Class of executed instruction. (Count)
system.atomicCpu1.exec_context.thread_0.statExecutedInstType::FloatAdd            0                       # Class of executed instruction. (Count)
system.atomicCpu1.exec_context.thread_0.statExecutedInstType::FloatCmp            0                       # Class of executed instruction. (Count)
system.atomicCpu1.exec_context.thread_0.statExecutedInstType::FloatCvt            0                       # Class of executed instruction. (Count)
system.atomicCpu1.exec_context.thread_0.statExecutedInstType::FloatMult            0                       # Class of executed instruction. (Count)
system.atomicCpu1.exec_context.thread_0.statExecutedInstType::FloatMultAcc            0                       # Class of executed instruction. (Count)
system.atomicCpu1.exec_context.thread_0.statExecutedInstType::FloatDiv            0                       # Class of executed instruction. (Count)
system.atomicCpu1.exec_context.thread_0.statExecutedInstType::FloatMisc            0                       # Class of executed instruction. (Count)
system.atomicCpu1.exec_context.thread_0.statExecutedInstType::FloatSqrt            0                       # Class of executed instruction. (Count)
system.atomicCpu1.exec_context.thread_0.statExecutedInstType::SimdAdd            0                       # Class of executed instruction. (Count)
system.atomicCpu1.exec_context.thread_0.statExecutedInstType::SimdAddAcc            0                       # Class of executed instruction. (Count)
system.atomicCpu1.exec_context.thread_0.statExecutedInstType::SimdAlu            0                       # Class of executed instruction. (Count)
system.atomicCpu1.exec_context.thread_0.statExecutedInstType::SimdCmp            0                       # Class of executed instruction. (Count)
system.atomicCpu1.exec_context.thread_0.statExecutedInstType::SimdCvt            0                       # Class of executed instruction. (Count)
system.atomicCpu1.exec_context.thread_0.statExecutedInstType::SimdMisc            0                       # Class of executed instruction. (Count)
system.atomicCpu1.exec_context.thread_0.statExecutedInstType::SimdMult            0                       # Class of executed instruction. (Count)
system.atomicCpu1.exec_context.thread_0.statExecutedInstType::SimdMultAcc            0                       # Class of executed instruction. (Count)
system.atomicCpu1.exec_context.thread_0.statExecutedInstType::SimdShift            0                       # Class of executed instruction. (Count)
system.atomicCpu1.exec_context.thread_0.statExecutedInstType::SimdShiftAcc            0                       # Class of executed instruction. (Count)
system.atomicCpu1.exec_context.thread_0.statExecutedInstType::SimdDiv            0                       # Class of executed instruction. (Count)
system.atomicCpu1.exec_context.thread_0.statExecutedInstType::SimdSqrt            0                       # Class of executed instruction. (Count)
system.atomicCpu1.exec_context.thread_0.statExecutedInstType::SimdFloatAdd            0                       # Class of executed instruction. (Count)
system.atomicCpu1.exec_context.thread_0.statExecutedInstType::SimdFloatAlu            0                       # Class of executed instruction. (Count)
system.atomicCpu1.exec_context.thread_0.statExecutedInstType::SimdFloatCmp            0                       # Class of executed instruction. (Count)
system.atomicCpu1.exec_context.thread_0.statExecutedInstType::SimdFloatCvt            0                       # Class of executed instruction. (Count)
system.atomicCpu1.exec_context.thread_0.statExecutedInstType::SimdFloatDiv            0                       # Class of executed instruction. (Count)
system.atomicCpu1.exec_context.thread_0.statExecutedInstType::SimdFloatMisc            0                       # Class of executed instruction. (Count)
system.atomicCpu1.exec_context.thread_0.statExecutedInstType::SimdFloatMult            0                       # Class of executed instruction. (Count)
system.atomicCpu1.exec_context.thread_0.statExecutedInstType::SimdFloatMultAcc            0                       # Class of executed instruction. (Count)
system.atomicCpu1.exec_context.thread_0.statExecutedInstType::SimdFloatSqrt            0                       # Class of executed instruction. (Count)
system.atomicCpu1.exec_context.thread_0.statExecutedInstType::SimdReduceAdd            0                       # Class of executed instruction. (Count)
system.atomicCpu1.exec_context.thread_0.statExecutedInstType::SimdReduceAlu            0                       # Class of executed instruction. (Count)
system.atomicCpu1.exec_context.thread_0.statExecutedInstType::SimdReduceCmp            0                       # Class of executed instruction. (Count)
system.atomicCpu1.exec_context.thread_0.statExecutedInstType::SimdFloatReduceAdd            0                       # Class of executed instruction. (Count)
system.atomicCpu1.exec_context.thread_0.statExecutedInstType::SimdFloatReduceCmp            0                       # Class of executed instruction. (Count)
system.atomicCpu1.exec_context.thread_0.statExecutedInstType::SimdAes            0                       # Class of executed instruction. (Count)
system.atomicCpu1.exec_context.thread_0.statExecutedInstType::SimdAesMix            0                       # Class of executed instruction. (Count)
system.atomicCpu1.exec_context.thread_0.statExecutedInstType::SimdSha1Hash            0                       # Class of executed instruction. (Count)
system.atomicCpu1.exec_context.thread_0.statExecutedInstType::SimdSha1Hash2            0                       # Class of executed instruction. (Count)
system.atomicCpu1.exec_context.thread_0.statExecutedInstType::SimdSha256Hash            0                       # Class of executed instruction. (Count)
system.atomicCpu1.exec_context.thread_0.statExecutedInstType::SimdSha256Hash2            0                       # Class of executed instruction. (Count)
system.atomicCpu1.exec_context.thread_0.statExecutedInstType::SimdShaSigma2            0                       # Class of executed instruction. (Count)
system.atomicCpu1.exec_context.thread_0.statExecutedInstType::SimdShaSigma3            0                       # Class of executed instruction. (Count)
system.atomicCpu1.exec_context.thread_0.statExecutedInstType::SimdPredAlu            0                       # Class of executed instruction. (Count)
system.atomicCpu1.exec_context.thread_0.statExecutedInstType::MemRead            0                       # Class of executed instruction. (Count)
system.atomicCpu1.exec_context.thread_0.statExecutedInstType::MemWrite            0                       # Class of executed instruction. (Count)
system.atomicCpu1.exec_context.thread_0.statExecutedInstType::FloatMemRead            0                       # Class of executed instruction. (Count)
system.atomicCpu1.exec_context.thread_0.statExecutedInstType::FloatMemWrite            0                       # Class of executed instruction. (Count)
system.atomicCpu1.exec_context.thread_0.statExecutedInstType::IprAccess            0                       # Class of executed instruction. (Count)
system.atomicCpu1.exec_context.thread_0.statExecutedInstType::InstPrefetch            0                       # Class of executed instruction. (Count)
system.atomicCpu1.exec_context.thread_0.statExecutedInstType::total            0                       # Class of executed instruction. (Count)
system.atomicCpu1.mmu.dtb.rdAccesses                0                       # TLB accesses on read requests (Count)
system.atomicCpu1.mmu.dtb.wrAccesses                0                       # TLB accesses on write requests (Count)
system.atomicCpu1.mmu.dtb.rdMisses                  0                       # TLB misses on read requests (Count)
system.atomicCpu1.mmu.dtb.wrMisses                  0                       # TLB misses on write requests (Count)
system.atomicCpu1.mmu.dtb.walker.power_state.pwrStateResidencyTicks::UNDEFINED 156031257110751                       # Cumulative time (in ticks) in various power states (Tick)
system.atomicCpu1.mmu.itb.rdAccesses                0                       # TLB accesses on read requests (Count)
system.atomicCpu1.mmu.itb.wrAccesses                0                       # TLB accesses on write requests (Count)
system.atomicCpu1.mmu.itb.rdMisses                  0                       # TLB misses on read requests (Count)
system.atomicCpu1.mmu.itb.wrMisses                  0                       # TLB misses on write requests (Count)
system.atomicCpu1.mmu.itb.walker.power_state.pwrStateResidencyTicks::UNDEFINED 156031257110751                       # Cumulative time (in ticks) in various power states (Tick)
system.atomicCpu1.power_state.pwrStateResidencyTicks::OFF 156031257110751                       # Cumulative time (in ticks) in various power states (Tick)
system.atomicCpu1.thread_0.numInsts                 0                       # Number of Instructions committed (Count)
system.atomicCpu1.thread_0.numOps                   0                       # Number of Ops committed (Count)
system.atomicCpu1.thread_0.numMemRefs               0                       # Number of Memory References (Count)
system.caches.delayHistogram::bucket_size           64                       # delay histogram for all message (Unspecified)
system.caches.delayHistogram::max_bucket          639                       # delay histogram for all message (Unspecified)
system.caches.delayHistogram::samples        12509762                       # delay histogram for all message (Unspecified)
system.caches.delayHistogram::mean           0.171791                       # delay histogram for all message (Unspecified)
system.caches.delayHistogram::stdev          1.164409                       # delay histogram for all message (Unspecified)
system.caches.delayHistogram             |    12509761    100.00%    100.00% |           0      0.00%    100.00% |           0      0.00%    100.00% |           0      0.00%    100.00% |           0      0.00%    100.00% |           1      0.00%    100.00% |           0      0.00%    100.00% |           0      0.00%    100.00% |           0      0.00%    100.00% |           0      0.00%    100.00% # delay histogram for all message (Unspecified)
system.caches.delayHistogram::total          12509762                       # delay histogram for all message (Unspecified)
system.caches.m_outstandReqHistSeqr::bucket_size            1                       (Unspecified)
system.caches.m_outstandReqHistSeqr::max_bucket            9                       (Unspecified)
system.caches.m_outstandReqHistSeqr::samples    193739420                       (Unspecified)
system.caches.m_outstandReqHistSeqr::mean     1.000000                       (Unspecified)
system.caches.m_outstandReqHistSeqr::gmean     1.000000                       (Unspecified)
system.caches.m_outstandReqHistSeqr::stdev     0.000176                       (Unspecified)
system.caches.m_outstandReqHistSeqr      |           0      0.00%      0.00% |   193739414    100.00%    100.00% |           6      0.00%    100.00% |           0      0.00%    100.00% |           0      0.00%    100.00% |           0      0.00%    100.00% |           0      0.00%    100.00% |           0      0.00%    100.00% |           0      0.00%    100.00% |           0      0.00%    100.00% (Unspecified)
system.caches.m_outstandReqHistSeqr::total    193739420                       (Unspecified)
system.caches.m_latencyHistSeqr::bucket_size          512                       (Unspecified)
system.caches.m_latencyHistSeqr::max_bucket         5119                       (Unspecified)
system.caches.m_latencyHistSeqr::samples    193739418                       (Unspecified)
system.caches.m_latencyHistSeqr::mean        3.817094                       (Unspecified)
system.caches.m_latencyHistSeqr::gmean       1.054163                       (Unspecified)
system.caches.m_latencyHistSeqr::stdev      38.431898                       (Unspecified)
system.caches.m_latencyHistSeqr          |   193494892     99.87%     99.87% |      216747      0.11%     99.99% |        9179      0.00%     99.99% |       17646      0.01%    100.00% |         919      0.00%    100.00% |          34      0.00%    100.00% |           1      0.00%    100.00% |           0      0.00%    100.00% |           0      0.00%    100.00% |           0      0.00%    100.00% (Unspecified)
system.caches.m_latencyHistSeqr::total      193739418                       (Unspecified)
system.caches.m_hitLatencyHistSeqr::bucket_size            1                       (Unspecified)
system.caches.m_hitLatencyHistSeqr::max_bucket            9                       (Unspecified)
system.caches.m_hitLatencyHistSeqr::samples    191472266                       (Unspecified)
system.caches.m_hitLatencyHistSeqr::mean            1                       (Unspecified)
system.caches.m_hitLatencyHistSeqr::gmean            1                       (Unspecified)
system.caches.m_hitLatencyHistSeqr       |           0      0.00%      0.00% |   191472266    100.00%    100.00% |           0      0.00%    100.00% |           0      0.00%    100.00% |           0      0.00%    100.00% |           0      0.00%    100.00% |           0      0.00%    100.00% |           0      0.00%    100.00% |           0      0.00%    100.00% |           0      0.00%    100.00% (Unspecified)
system.caches.m_hitLatencyHistSeqr::total    191472266                       (Unspecified)
system.caches.m_missLatencyHistSeqr::bucket_size          512                       (Unspecified)
system.caches.m_missLatencyHistSeqr::max_bucket         5119                       (Unspecified)
system.caches.m_missLatencyHistSeqr::samples      2267152                       (Unspecified)
system.caches.m_missLatencyHistSeqr::mean   241.734657                       (Unspecified)
system.caches.m_missLatencyHistSeqr::gmean    90.697927                       (Unspecified)
system.caches.m_missLatencyHistSeqr::stdev   262.569888                       (Unspecified)
system.caches.m_missLatencyHistSeqr      |     2022626     89.21%     89.21% |      216747      9.56%     98.77% |        9179      0.40%     99.18% |       17646      0.78%     99.96% |         919      0.04%    100.00% |          34      0.00%    100.00% |           1      0.00%    100.00% |           0      0.00%    100.00% |           0      0.00%    100.00% |           0      0.00%    100.00% (Unspecified)
system.caches.m_missLatencyHistSeqr::total      2267152                       (Unspecified)
system.caches.delayVCHist.vnet_0::bucket_size           64                       # delay histogram for vnet_0 (Unspecified)
system.caches.delayVCHist.vnet_0::max_bucket          639                       # delay histogram for vnet_0 (Unspecified)
system.caches.delayVCHist.vnet_0::samples      5809004                       # delay histogram for vnet_0 (Unspecified)
system.caches.delayVCHist.vnet_0::mean       0.369242                       # delay histogram for vnet_0 (Unspecified)
system.caches.delayVCHist.vnet_0::stdev      1.686210                       # delay histogram for vnet_0 (Unspecified)
system.caches.delayVCHist.vnet_0         |     5809003    100.00%    100.00% |           0      0.00%    100.00% |           0      0.00%    100.00% |           0      0.00%    100.00% |           0      0.00%    100.00% |           1      0.00%    100.00% |           0      0.00%    100.00% |           0      0.00%    100.00% |           0      0.00%    100.00% |           0      0.00%    100.00% # delay histogram for vnet_0 (Unspecified)
system.caches.delayVCHist.vnet_0::total       5809004                       # delay histogram for vnet_0 (Unspecified)
system.caches.delayVCHist.vnet_1::bucket_size            1                       # delay histogram for vnet_1 (Unspecified)
system.caches.delayVCHist.vnet_1::max_bucket            9                       # delay histogram for vnet_1 (Unspecified)
system.caches.delayVCHist.vnet_1::samples      6550168                       # delay histogram for vnet_1 (Unspecified)
system.caches.delayVCHist.vnet_1::mean       0.000628                       # delay histogram for vnet_1 (Unspecified)
system.caches.delayVCHist.vnet_1::stdev      0.057565                       # delay histogram for vnet_1 (Unspecified)
system.caches.delayVCHist.vnet_1         |     6549237     99.99%     99.99% |           0      0.00%     99.99% |         268      0.00%     99.99% |           0      0.00%     99.99% |         296      0.00%     99.99% |           0      0.00%     99.99% |         271      0.00%    100.00% |           0      0.00%    100.00% |          96      0.00%    100.00% |           0      0.00%    100.00% # delay histogram for vnet_1 (Unspecified)
system.caches.delayVCHist.vnet_1::total       6550168                       # delay histogram for vnet_1 (Unspecified)
system.caches.delayVCHist.vnet_2::bucket_size            1                       # delay histogram for vnet_2 (Unspecified)
system.caches.delayVCHist.vnet_2::max_bucket            9                       # delay histogram for vnet_2 (Unspecified)
system.caches.delayVCHist.vnet_2::samples       150590                       # delay histogram for vnet_2 (Unspecified)
system.caches.delayVCHist.vnet_2::mean       0.000159                       # delay histogram for vnet_2 (Unspecified)
system.caches.delayVCHist.vnet_2::stdev      0.017853                       # delay histogram for vnet_2 (Unspecified)
system.caches.delayVCHist.vnet_2         |      150578     99.99%     99.99% |           0      0.00%     99.99% |          12      0.01%    100.00% |           0      0.00%    100.00% |           0      0.00%    100.00% |           0      0.00%    100.00% |           0      0.00%    100.00% |           0      0.00%    100.00% |           0      0.00%    100.00% |           0      0.00%    100.00% # delay histogram for vnet_2 (Unspecified)
system.caches.delayVCHist.vnet_2::total        150590                       # delay histogram for vnet_2 (Unspecified)
system.caches.L1Cache_Controller.Load    |    17590874     50.34%     50.34% |    17352052     49.66%    100.00% (Unspecified)
system.caches.L1Cache_Controller.Load::total     34942926                       (Unspecified)
system.caches.L1Cache_Controller.Ifetch  |    79510978     50.90%     50.90% |    76698339     49.10%    100.00% (Unspecified)
system.caches.L1Cache_Controller.Ifetch::total    156209317                       (Unspecified)
system.caches.L1Cache_Controller.Store   |     1222047     47.23%     47.23% |     1365128     52.77%    100.00% (Unspecified)
system.caches.L1Cache_Controller.Store::total      2587175                       (Unspecified)
system.caches.L1Cache_Controller.Inv     |       42444     48.43%     48.43% |       45201     51.57%    100.00% (Unspecified)
system.caches.L1Cache_Controller.Inv::total        87645                       (Unspecified)
system.caches.L1Cache_Controller.L1_Replacement |     1093058     49.78%     49.78% |     1102770     50.22%    100.00% (Unspecified)
system.caches.L1Cache_Controller.L1_Replacement::total      2195828                       (Unspecified)
system.caches.L1Cache_Controller.Fwd_GETX |         189     55.43%     55.43% |         152     44.57%    100.00% (Unspecified)
system.caches.L1Cache_Controller.Fwd_GETX::total          341                       (Unspecified)
system.caches.L1Cache_Controller.Fwd_GETS |       32214     51.46%     51.46% |       30390     48.54%    100.00% (Unspecified)
system.caches.L1Cache_Controller.Fwd_GETS::total        62604                       (Unspecified)
system.caches.L1Cache_Controller.Data    |          95     95.96%     95.96% |           4      4.04%    100.00% (Unspecified)
system.caches.L1Cache_Controller.Data::total           99                       (Unspecified)
system.caches.L1Cache_Controller.Data_Exclusive |      861350     49.81%     49.81% |      868092     50.19%    100.00% (Unspecified)
system.caches.L1Cache_Controller.Data_Exclusive::total      1729442                       (Unspecified)
system.caches.L1Cache_Controller.DataS_fromL1 |       30390     48.54%     48.54% |       32214     51.46%    100.00% (Unspecified)
system.caches.L1Cache_Controller.DataS_fromL1::total        62604                       (Unspecified)
system.caches.L1Cache_Controller.Data_all_Acks |      214996     49.65%     49.65% |      217985     50.35%    100.00% (Unspecified)
system.caches.L1Cache_Controller.Data_all_Acks::total       432981                       (Unspecified)
system.caches.L1Cache_Controller.Ack     |       22133     52.67%     52.67% |       19893     47.33%    100.00% (Unspecified)
system.caches.L1Cache_Controller.Ack::total        42026                       (Unspecified)
system.caches.L1Cache_Controller.Ack_all |       22228     52.77%     52.77% |       19897     47.23%    100.00% (Unspecified)
system.caches.L1Cache_Controller.Ack_all::total        42125                       (Unspecified)
system.caches.L1Cache_Controller.WB_Ack  |      846122     49.78%     49.78% |      853613     50.22%    100.00% (Unspecified)
system.caches.L1Cache_Controller.WB_Ack::total      1699735                       (Unspecified)
system.caches.L1Cache_Controller.NP.Load |     1094745     49.82%     49.82% |     1102670     50.18%    100.00% (Unspecified)
system.caches.L1Cache_Controller.NP.Load::total      2197415                       (Unspecified)
system.caches.L1Cache_Controller.NP.Ifetch |        3572     45.01%     45.01% |        4364     54.99%    100.00% (Unspecified)
system.caches.L1Cache_Controller.NP.Ifetch::total         7936                       (Unspecified)
system.caches.L1Cache_Controller.NP.Store |        3294     42.60%     42.60% |        4438     57.40%    100.00% (Unspecified)
system.caches.L1Cache_Controller.NP.Store::total         7732                       (Unspecified)
system.caches.L1Cache_Controller.NP.Inv  |       31802     49.68%     49.68% |       32215     50.32%    100.00% (Unspecified)
system.caches.L1Cache_Controller.NP.Inv::total        64017                       (Unspecified)
system.caches.L1Cache_Controller.I.Load  |        3309     39.94%     39.94% |        4975     60.06%    100.00% (Unspecified)
system.caches.L1Cache_Controller.I.Load::total         8284                       (Unspecified)
system.caches.L1Cache_Controller.I.Ifetch |        1755     50.93%     50.93% |        1691     49.07%    100.00% (Unspecified)
system.caches.L1Cache_Controller.I.Ifetch::total         3446                       (Unspecified)
system.caches.L1Cache_Controller.I.Store |         156     49.84%     49.84% |         157     50.16%    100.00% (Unspecified)
system.caches.L1Cache_Controller.I.Store::total          313                       (Unspecified)
system.caches.L1Cache_Controller.I.L1_Replacement |        5517     46.68%     46.68% |        6303     53.32%    100.00% (Unspecified)
system.caches.L1Cache_Controller.I.L1_Replacement::total        11820                       (Unspecified)
system.caches.L1Cache_Controller.S.Load  |     9408918     50.75%     50.75% |     9132631     49.25%    100.00% (Unspecified)
system.caches.L1Cache_Controller.S.Load::total     18541549                       (Unspecified)
system.caches.L1Cache_Controller.S.Ifetch |    79505651     50.90%     50.90% |    76692284     49.10%    100.00% (Unspecified)
system.caches.L1Cache_Controller.S.Ifetch::total    156197935                       (Unspecified)
system.caches.L1Cache_Controller.S.Store |       22133     52.67%     52.67% |       19893     47.33%    100.00% (Unspecified)
system.caches.L1Cache_Controller.S.Store::total        42026                       (Unspecified)
system.caches.L1Cache_Controller.S.Inv   |       10267     44.85%     44.85% |       12625     55.15%    100.00% (Unspecified)
system.caches.L1Cache_Controller.S.Inv::total        22892                       (Unspecified)
system.caches.L1Cache_Controller.S.L1_Replacement |      241419     49.85%     49.85% |      242854     50.15%    100.00% (Unspecified)
system.caches.L1Cache_Controller.S.L1_Replacement::total       484273                       (Unspecified)
system.caches.L1Cache_Controller.E.Load  |     4206099     50.73%     50.73% |     4084500     49.27%    100.00% (Unspecified)
system.caches.L1Cache_Controller.E.Load::total      8290599                       (Unspecified)
system.caches.L1Cache_Controller.E.Store |      119089     49.27%     49.27% |      122632     50.73%    100.00% (Unspecified)
system.caches.L1Cache_Controller.E.Store::total       241721                       (Unspecified)
system.caches.L1Cache_Controller.E.Inv   |         302     51.62%     51.62% |         283     48.38%    100.00% (Unspecified)
system.caches.L1Cache_Controller.E.Inv::total          585                       (Unspecified)
system.caches.L1Cache_Controller.E.L1_Replacement |      715074     49.79%     49.79% |      721172     50.21%    100.00% (Unspecified)
system.caches.L1Cache_Controller.E.L1_Replacement::total      1436246                       (Unspecified)
system.caches.L1Cache_Controller.E.Fwd_GETX |           5     45.45%     45.45% |           6     54.55%    100.00% (Unspecified)
system.caches.L1Cache_Controller.E.Fwd_GETX::total           11                       (Unspecified)
system.caches.L1Cache_Controller.E.Fwd_GETS |       18906     49.77%     49.77% |       19083     50.23%    100.00% (Unspecified)
system.caches.L1Cache_Controller.E.Fwd_GETS::total        37989                       (Unspecified)
system.caches.L1Cache_Controller.M.Load  |     2877803     48.73%     48.73% |     3027276     51.27%    100.00% (Unspecified)
system.caches.L1Cache_Controller.M.Load::total      5905079                       (Unspecified)
system.caches.L1Cache_Controller.M.Store |     1077375     46.94%     46.94% |     1218008     53.06%    100.00% (Unspecified)
system.caches.L1Cache_Controller.M.Store::total      2295383                       (Unspecified)
system.caches.L1Cache_Controller.M.Inv   |          73     48.34%     48.34% |          78     51.66%    100.00% (Unspecified)
system.caches.L1Cache_Controller.M.Inv::total          151                       (Unspecified)
system.caches.L1Cache_Controller.M.L1_Replacement |      131048     49.74%     49.74% |      132441     50.26%    100.00% (Unspecified)
system.caches.L1Cache_Controller.M.L1_Replacement::total       263489                       (Unspecified)
system.caches.L1Cache_Controller.M.Fwd_GETX |         184     55.76%     55.76% |         146     44.24%    100.00% (Unspecified)
system.caches.L1Cache_Controller.M.Fwd_GETX::total          330                       (Unspecified)
system.caches.L1Cache_Controller.M.Fwd_GETS |       13308     54.06%     54.06% |       11307     45.94%    100.00% (Unspecified)
system.caches.L1Cache_Controller.M.Fwd_GETS::total        24615                       (Unspecified)
system.caches.L1Cache_Controller.IS.Data_Exclusive |      861350     49.81%     49.81% |      868092     50.19%    100.00% (Unspecified)
system.caches.L1Cache_Controller.IS.Data_Exclusive::total      1729442                       (Unspecified)
system.caches.L1Cache_Controller.IS.DataS_fromL1 |       30390     48.54%     48.54% |       32214     51.46%    100.00% (Unspecified)
system.caches.L1Cache_Controller.IS.DataS_fromL1::total        62604                       (Unspecified)
system.caches.L1Cache_Controller.IS.Data_all_Acks |      211641     49.79%     49.79% |      213394     50.21%    100.00% (Unspecified)
system.caches.L1Cache_Controller.IS.Data_all_Acks::total       425035                       (Unspecified)
system.caches.L1Cache_Controller.IM.Data |          95     95.96%     95.96% |           4      4.04%    100.00% (Unspecified)
system.caches.L1Cache_Controller.IM.Data::total           99                       (Unspecified)
system.caches.L1Cache_Controller.IM.Data_all_Acks |        3355     42.22%     42.22% |        4591     57.78%    100.00% (Unspecified)
system.caches.L1Cache_Controller.IM.Data_all_Acks::total         7946                       (Unspecified)
system.caches.L1Cache_Controller.SM.Ack  |       22133     52.67%     52.67% |       19893     47.33%    100.00% (Unspecified)
system.caches.L1Cache_Controller.SM.Ack::total        42026                       (Unspecified)
system.caches.L1Cache_Controller.SM.Ack_all |       22228     52.77%     52.77% |       19897     47.23%    100.00% (Unspecified)
system.caches.L1Cache_Controller.SM.Ack_all::total        42125                       (Unspecified)
system.caches.L1Cache_Controller.M_I.WB_Ack |      846122     49.78%     49.78% |      853613     50.22%    100.00% (Unspecified)
system.caches.L1Cache_Controller.M_I.WB_Ack::total      1699735                       (Unspecified)
system.caches.Directory_Controller.Fetch      1282052      0.00%      0.00% (Unspecified)
system.caches.Directory_Controller.Data        173028      0.00%      0.00% (Unspecified)
system.caches.Directory_Controller.Memory_Data      1282052      0.00%      0.00% (Unspecified)
system.caches.Directory_Controller.Memory_Ack       173028      0.00%      0.00% (Unspecified)
system.caches.Directory_Controller.CleanReplacement       977952      0.00%      0.00% (Unspecified)
system.caches.Directory_Controller.I.Fetch      1282052      0.00%      0.00% (Unspecified)
system.caches.Directory_Controller.M.Data       173028      0.00%      0.00% (Unspecified)
system.caches.Directory_Controller.M.CleanReplacement       977952      0.00%      0.00% (Unspecified)
system.caches.Directory_Controller.IM.Memory_Data      1282052      0.00%      0.00% (Unspecified)
system.caches.Directory_Controller.MI.Memory_Ack       173028      0.00%      0.00% (Unspecified)
system.caches.L2Cache_Controller.L1_GET_INSTR |         955      8.39%      8.39% |        1735     15.24%     23.63% |        1533     13.47%     37.09% |         824      7.24%     44.33% |        1230     10.80%     55.13% |        1595     14.01%     69.14% |        1760     15.46%     84.60% |        1753     15.40%    100.00% (Unspecified)
system.caches.L2Cache_Controller.L1_GET_INSTR::total        11385                       (Unspecified)
system.caches.L2Cache_Controller.L1_GETS |      278357     12.62%     12.62% |      279013     12.65%     25.27% |      275582     12.49%     37.76% |      275239     12.48%     50.23% |      272996     12.38%     62.61% |      276191     12.52%     75.13% |      276125     12.52%     87.65% |      272524     12.35%    100.00% (Unspecified)
system.caches.L2Cache_Controller.L1_GETS::total      2206027                       (Unspecified)
system.caches.L2Cache_Controller.L1_GETX |        1097     13.63%     13.63% |        1154     14.34%     27.97% |         522      6.49%     34.46% |         754      9.37%     43.83% |         760      9.44%     53.27% |        1514     18.81%     72.09% |         968     12.03%     84.12% |        1278     15.88%    100.00% (Unspecified)
system.caches.L2Cache_Controller.L1_GETX::total         8047                       (Unspecified)
system.caches.L2Cache_Controller.L1_UPGRADE |        5330     12.60%     12.60% |        5339     12.63%     25.23% |        5235     12.38%     37.61% |        5181     12.25%     49.86% |        5036     11.91%     61.77% |        5169     12.22%     74.00% |        5936     14.04%     88.04% |        5059     11.96%    100.00% (Unspecified)
system.caches.L2Cache_Controller.L1_UPGRADE::total        42285                       (Unspecified)
system.caches.L2Cache_Controller.L1_PUTX |      213433     12.56%     12.56% |      213159     12.54%     25.10% |      211313     12.43%     37.53% |      211174     12.42%     49.95% |      211891     12.47%     62.42% |      213476     12.56%     74.98% |      212946     12.53%     87.51% |      212343     12.49%    100.00% (Unspecified)
system.caches.L2Cache_Controller.L1_PUTX::total      1699735                       (Unspecified)
system.caches.L2Cache_Controller.L2_Replacement |       21595     12.48%     12.48% |       21525     12.44%     24.93% |       21587     12.48%     37.41% |       21447     12.40%     49.81% |       21695     12.54%     62.35% |       21609     12.49%     74.84% |       21736     12.57%     87.41% |       21782     12.59%    100.00% (Unspecified)
system.caches.L2Cache_Controller.L2_Replacement::total       172976                       (Unspecified)
system.caches.L2Cache_Controller.L2_Replacement_clean |      122473     12.52%     12.52% |      122337     12.51%     25.03% |      121510     12.42%     37.46% |      121713     12.45%     49.90% |      122360     12.51%     62.41% |      122428     12.52%     74.93% |      122615     12.54%     87.47% |      122568     12.53%    100.00% (Unspecified)
system.caches.L2Cache_Controller.L2_Replacement_clean::total       978004                       (Unspecified)
system.caches.L2Cache_Controller.Mem_Data |      160452     12.52%     12.52% |      160246     12.50%     25.01% |      159481     12.44%     37.45% |      159544     12.44%     49.90% |      160439     12.51%     62.41% |      160421     12.51%     74.93% |      160735     12.54%     87.46% |      160734     12.54%    100.00% (Unspecified)
system.caches.L2Cache_Controller.Mem_Data::total      1282052                       (Unspecified)
system.caches.L2Cache_Controller.Mem_Ack |      144068     12.52%     12.52% |      143862     12.50%     25.02% |      143097     12.43%     37.45% |      143160     12.44%     49.89% |      144055     12.52%     62.40% |      144037     12.51%     74.92% |      144351     12.54%     87.46% |      144350     12.54%    100.00% (Unspecified)
system.caches.L2Cache_Controller.Mem_Ack::total      1150980                       (Unspecified)
system.caches.L2Cache_Controller.WB_Data |        3202     12.93%     12.93% |        3080     12.44%     25.37% |        2920     11.79%     37.16% |        2914     11.77%     48.92% |        3021     12.20%     61.12% |        3040     12.27%     73.39% |        3566     14.40%     87.79% |        3023     12.21%    100.00% (Unspecified)
system.caches.L2Cache_Controller.WB_Data::total        24766                       (Unspecified)
system.caches.L2Cache_Controller.WB_Data_clean |        4683     12.33%     12.33% |        4827     12.71%     25.03% |        4891     12.87%     37.91% |        4768     12.55%     50.46% |        4672     12.30%     62.76% |        4826     12.70%     75.46% |        4759     12.53%     87.99% |        4563     12.01%    100.00% (Unspecified)
system.caches.L2Cache_Controller.WB_Data_clean::total        37989                       (Unspecified)
system.caches.L2Cache_Controller.Ack     |        2694     12.36%     12.36% |        2709     12.43%     24.80% |        2716     12.47%     37.26% |        2625     12.05%     49.31% |        2816     12.92%     62.23% |        2845     13.06%     75.29% |        2720     12.48%     87.77% |        2664     12.23%    100.00% (Unspecified)
system.caches.L2Cache_Controller.Ack::total        21789                       (Unspecified)
system.caches.L2Cache_Controller.Ack_all |        2924     12.40%     12.40% |        2956     12.54%     24.94% |        2937     12.46%     37.39% |        2828     11.99%     49.39% |        3026     12.83%     62.22% |        3073     13.03%     75.25% |        2934     12.44%     87.69% |        2902     12.31%    100.00% (Unspecified)
system.caches.L2Cache_Controller.Ack_all::total        23580                       (Unspecified)
system.caches.L2Cache_Controller.Unblock |        7865     12.56%     12.56% |        7893     12.61%     25.17% |        7802     12.46%     37.63% |        7654     12.23%     49.86% |        7676     12.26%     62.12% |        7842     12.53%     74.65% |        8305     13.27%     87.91% |        7567     12.09%    100.00% (Unspecified)
system.caches.L2Cache_Controller.Unblock::total        62604                       (Unspecified)
system.caches.L2Cache_Controller.Exclusive_Unblock |      223373     12.55%     12.55% |      223466     12.56%     25.11% |      221198     12.43%     37.54% |      220944     12.42%     49.96% |      221680     12.46%     62.41% |      223448     12.56%     74.97% |      223385     12.55%     87.52% |      222019     12.48%    100.00% (Unspecified)
system.caches.L2Cache_Controller.Exclusive_Unblock::total      1779513                       (Unspecified)
system.caches.L2Cache_Controller.NP.L1_GET_INSTR |         533     13.20%     13.20% |         535     13.25%     26.46% |         485     12.01%     38.47% |         481     11.91%     50.38% |         487     12.06%     62.45% |         518     12.83%     75.28% |         487     12.06%     87.34% |         511     12.66%    100.00% (Unspecified)
system.caches.L2Cache_Controller.NP.L1_GET_INSTR::total         4037                       (Unspecified)
system.caches.L2Cache_Controller.NP.L1_GETS |      159634     12.51%     12.51% |      159430     12.50%     25.01% |      158725     12.44%     37.45% |      158791     12.45%     49.90% |      159677     12.52%     62.41% |      159611     12.51%     74.93% |      159967     12.54%     87.46% |      159930     12.54%    100.00% (Unspecified)
system.caches.L2Cache_Controller.NP.L1_GETS::total      1275765                       (Unspecified)
system.caches.L2Cache_Controller.NP.L1_GETX |         285     12.67%     12.67% |         281     12.49%     25.16% |         271     12.04%     37.20% |         272     12.09%     49.29% |         275     12.22%     61.51% |         292     12.98%     74.49% |         281     12.49%     86.98% |         293     13.02%    100.00% (Unspecified)
system.caches.L2Cache_Controller.NP.L1_GETX::total         2250                       (Unspecified)
system.caches.L2Cache_Controller.SS.L1_GET_INSTR |         316      4.79%      4.79% |        1094     16.57%     21.36% |         958     14.51%     35.87% |         246      3.73%     39.59% |         647      9.80%     49.39% |         975     14.77%     64.16% |        1199     18.16%     82.32% |        1167     17.68%    100.00% (Unspecified)
system.caches.L2Cache_Controller.SS.L1_GET_INSTR::total         6602                       (Unspecified)
system.caches.L2Cache_Controller.SS.L1_GETS |       53495     12.94%     12.94% |       54140     13.09%     26.03% |       52312     12.65%     38.68% |       52555     12.71%     51.39% |       49424     11.95%     63.34% |       51576     12.47%     75.81% |       50758     12.27%     88.09% |       49257     11.91%    100.00% (Unspecified)
system.caches.L2Cache_Controller.SS.L1_GETS::total       413517                       (Unspecified)
system.caches.L2Cache_Controller.SS.L1_GETX |          17     17.17%     17.17% |           0      0.00%     17.17% |           1      1.01%     18.18% |           0      0.00%     18.18% |           3      3.03%     21.21% |           0      0.00%     21.21% |          78     78.79%    100.00% |           0      0.00%    100.00% (Unspecified)
system.caches.L2Cache_Controller.SS.L1_GETX::total           99                       (Unspecified)
system.caches.L2Cache_Controller.SS.L1_UPGRADE |        5330     12.68%     12.68% |        5339     12.70%     25.39% |        5235     12.46%     37.84% |        5181     12.33%     50.17% |        5036     11.98%     62.15% |        5169     12.30%     74.45% |        5677     13.51%     87.96% |        5059     12.04%    100.00% (Unspecified)
system.caches.L2Cache_Controller.SS.L1_UPGRADE::total        42026                       (Unspecified)
system.caches.L2Cache_Controller.SS.L2_Replacement |        1914     12.23%     12.23% |        1968     12.57%     24.80% |        1988     12.70%     37.50% |        1916     12.24%     49.74% |        2031     12.98%     62.72% |        1962     12.53%     75.25% |        1950     12.46%     87.71% |        1924     12.29%    100.00% (Unspecified)
system.caches.L2Cache_Controller.SS.L2_Replacement::total        15653                       (Unspecified)
system.caches.L2Cache_Controller.SS.L2_Replacement_clean |         944     12.86%     12.86% |         907     12.35%     25.21% |         881     12.00%     37.21% |         856     11.66%     48.87% |         915     12.46%     61.33% |        1035     14.10%     75.43% |         902     12.29%     87.71% |         902     12.29%    100.00% (Unspecified)
system.caches.L2Cache_Controller.SS.L2_Replacement_clean::total         7342                       (Unspecified)
system.caches.L2Cache_Controller.M.L1_GETS |       57337     12.64%     12.64% |       57547     12.68%     25.32% |       56728     12.50%     37.82% |       56228     12.39%     50.21% |       56211     12.39%     62.60% |       57158     12.60%     75.20% |       56776     12.51%     87.71% |       55760     12.29%    100.00% (Unspecified)
system.caches.L2Cache_Controller.M.L1_GETS::total       453745                       (Unspecified)
system.caches.L2Cache_Controller.M.L1_GETX |         792     14.79%     14.79% |         558     10.42%     25.21% |         250      4.67%     29.88% |         471      8.80%     38.67% |         482      9.00%     47.68% |        1216     22.71%     70.38% |         606     11.32%     81.70% |         980     18.30%    100.00% (Unspecified)
system.caches.L2Cache_Controller.M.L1_GETX::total         5355                       (Unspecified)
system.caches.L2Cache_Controller.M.L2_Replacement |       19662     12.51%     12.51% |       19544     12.43%     24.94% |       19590     12.46%     37.41% |       19514     12.41%     49.82% |       19648     12.50%     62.32% |       19619     12.48%     74.80% |       19764     12.57%     87.38% |       19840     12.62%    100.00% (Unspecified)
system.caches.L2Cache_Controller.M.L2_Replacement::total       157181                       (Unspecified)
system.caches.L2Cache_Controller.M.L2_Replacement_clean |      121462     12.52%     12.52% |      121348     12.51%     25.03% |      120561     12.43%     37.46% |      120790     12.45%     49.91% |      121364     12.51%     62.42% |      121321     12.51%     74.93% |      121633     12.54%     87.47% |      121589     12.53%    100.00% (Unspecified)
system.caches.L2Cache_Controller.M.L2_Replacement_clean::total       970068                       (Unspecified)
system.caches.L2Cache_Controller.MT.L1_GETS |        7865     12.56%     12.56% |        7893     12.61%     25.17% |        7802     12.46%     37.63% |        7654     12.23%     49.86% |        7676     12.26%     62.12% |        7842     12.53%     74.65% |        8305     13.27%     87.91% |        7567     12.09%    100.00% (Unspecified)
system.caches.L2Cache_Controller.MT.L1_GETS::total        62604                       (Unspecified)
system.caches.L2Cache_Controller.MT.L1_GETX |           3      0.88%      0.88% |         314     92.08%     92.96% |           0      0.00%     92.96% |          11      3.23%     96.19% |           0      0.00%     96.19% |           6      1.76%     97.95% |           3      0.88%     98.83% |           4      1.17%    100.00% (Unspecified)
system.caches.L2Cache_Controller.MT.L1_GETX::total          341                       (Unspecified)
system.caches.L2Cache_Controller.MT.L1_PUTX |      213433     12.56%     12.56% |      213159     12.54%     25.10% |      211313     12.43%     37.53% |      211174     12.42%     49.95% |      211891     12.47%     62.42% |      213476     12.56%     74.98% |      212946     12.53%     87.51% |      212343     12.49%    100.00% (Unspecified)
system.caches.L2Cache_Controller.MT.L1_PUTX::total      1699735                       (Unspecified)
system.caches.L2Cache_Controller.MT.L2_Replacement |          19     13.38%     13.38% |          13      9.15%     22.54% |           9      6.34%     28.87% |          17     11.97%     40.85% |          16     11.27%     52.11% |          28     19.72%     71.83% |          22     15.49%     87.32% |          18     12.68%    100.00% (Unspecified)
system.caches.L2Cache_Controller.MT.L2_Replacement::total          142                       (Unspecified)
system.caches.L2Cache_Controller.MT.L2_Replacement_clean |          67     11.28%     11.28% |          82     13.80%     25.08% |          68     11.45%     36.53% |          67     11.28%     47.81% |          81     13.64%     61.45% |          72     12.12%     73.57% |          80     13.47%     87.04% |          77     12.96%    100.00% (Unspecified)
system.caches.L2Cache_Controller.MT.L2_Replacement_clean::total          594                       (Unspecified)
system.caches.L2Cache_Controller.M_I.L1_GET_INSTR |           0      0.00%      0.00% |           0      0.00%      0.00% |           1     33.33%     33.33% |           2     66.67%    100.00% |           0      0.00%    100.00% |           0      0.00%    100.00% |           0      0.00%    100.00% |           0      0.00%    100.00% (Unspecified)
system.caches.L2Cache_Controller.M_I.L1_GET_INSTR::total            3                       (Unspecified)
system.caches.L2Cache_Controller.M_I.L1_GETS |           0      0.00%      0.00% |           0      0.00%      0.00% |           3     60.00%     60.00% |           1     20.00%     80.00% |           0      0.00%     80.00% |           0      0.00%     80.00% |           0      0.00%     80.00% |           1     20.00%    100.00% (Unspecified)
system.caches.L2Cache_Controller.M_I.L1_GETS::total            5                       (Unspecified)
system.caches.L2Cache_Controller.M_I.Mem_Ack |      144068     12.52%     12.52% |      143862     12.50%     25.02% |      143097     12.43%     37.45% |      143160     12.44%     49.89% |      144055     12.52%     62.40% |      144037     12.51%     74.92% |      144351     12.54%     87.46% |      144350     12.54%    100.00% (Unspecified)
system.caches.L2Cache_Controller.M_I.Mem_Ack::total      1150980                       (Unspecified)
system.caches.L2Cache_Controller.MT_I.WB_Data |          15     15.15%     15.15% |           8      8.08%     23.23% |           6      6.06%     29.29% |          14     14.14%     43.43% |          10     10.10%     53.54% |          17     17.17%     70.71% |          15     15.15%     85.86% |          14     14.14%    100.00% (Unspecified)
system.caches.L2Cache_Controller.MT_I.WB_Data::total           99                       (Unspecified)
system.caches.L2Cache_Controller.MT_I.Ack_all |           4      9.30%      9.30% |           5     11.63%     20.93% |           3      6.98%     27.91% |           3      6.98%     34.88% |           6     13.95%     48.84% |          11     25.58%     74.42% |           7     16.28%     90.70% |           4      9.30%    100.00% (Unspecified)
system.caches.L2Cache_Controller.MT_I.Ack_all::total           43                       (Unspecified)
system.caches.L2Cache_Controller.MCT_I.WB_Data |           5      9.62%      9.62% |           6     11.54%     21.15% |           3      5.77%     26.92% |          14     26.92%     53.85% |           7     13.46%     67.31% |           7     13.46%     80.77% |           5      9.62%     90.38% |           5      9.62%    100.00% (Unspecified)
system.caches.L2Cache_Controller.MCT_I.WB_Data::total           52                       (Unspecified)
system.caches.L2Cache_Controller.MCT_I.Ack_all |          62     11.44%     11.44% |          76     14.02%     25.46% |          65     11.99%     37.45% |          53      9.78%     47.23% |          74     13.65%     60.89% |          65     11.99%     72.88% |          75     13.84%     86.72% |          72     13.28%    100.00% (Unspecified)
system.caches.L2Cache_Controller.MCT_I.Ack_all::total          542                       (Unspecified)
system.caches.L2Cache_Controller.I_I.Ack |         780     12.71%     12.71% |         741     12.08%     24.79% |         728     11.86%     36.65% |         709     11.55%     48.21% |         785     12.79%     61.00% |         883     14.39%     75.39% |         770     12.55%     87.94% |         740     12.06%    100.00% (Unspecified)
system.caches.L2Cache_Controller.I_I.Ack::total         6136                       (Unspecified)
system.caches.L2Cache_Controller.I_I.Ack_all |         944     12.86%     12.86% |         907     12.35%     25.21% |         881     12.00%     37.21% |         856     11.66%     48.87% |         915     12.46%     61.33% |        1035     14.10%     75.43% |         902     12.29%     87.71% |         902     12.29%    100.00% (Unspecified)
system.caches.L2Cache_Controller.I_I.Ack_all::total         7342                       (Unspecified)
system.caches.L2Cache_Controller.S_I.Ack |        1914     12.23%     12.23% |        1968     12.57%     24.80% |        1988     12.70%     37.50% |        1916     12.24%     49.74% |        2031     12.98%     62.72% |        1962     12.53%     75.25% |        1950     12.46%     87.71% |        1924     12.29%    100.00% (Unspecified)
system.caches.L2Cache_Controller.S_I.Ack::total        15653                       (Unspecified)
system.caches.L2Cache_Controller.S_I.Ack_all |        1914     12.23%     12.23% |        1968     12.57%     24.80% |        1988     12.70%     37.50% |        1916     12.24%     49.74% |        2031     12.98%     62.72% |        1962     12.53%     75.25% |        1950     12.46%     87.71% |        1924     12.29%    100.00% (Unspecified)
system.caches.L2Cache_Controller.S_I.Ack_all::total        15653                       (Unspecified)
system.caches.L2Cache_Controller.ISS.L1_GETS |          25     36.76%     36.76% |           3      4.41%     41.18% |          12     17.65%     58.82% |          10     14.71%     73.53% |           4      5.88%     79.41% |           4      5.88%     85.29% |           3      4.41%     89.71% |           7     10.29%    100.00% (Unspecified)
system.caches.L2Cache_Controller.ISS.L1_GETS::total           68                       (Unspecified)
system.caches.L2Cache_Controller.ISS.Mem_Data |      159609     12.51%     12.51% |      159427     12.50%     25.01% |      158713     12.44%     37.45% |      158781     12.45%     49.90% |      159673     12.52%     62.41% |      159607     12.51%     74.92% |      159964     12.54%     87.46% |      159923     12.54%    100.00% (Unspecified)
system.caches.L2Cache_Controller.ISS.Mem_Data::total      1275697                       (Unspecified)
system.caches.L2Cache_Controller.IS.L1_GET_INSTR |         106     14.27%     14.27% |         106     14.27%     28.53% |          89     11.98%     40.51% |          95     12.79%     53.30% |          96     12.92%     66.22% |         102     13.73%     79.95% |          74      9.96%     89.91% |          75     10.09%    100.00% (Unspecified)
system.caches.L2Cache_Controller.IS.L1_GET_INSTR::total          743                       (Unspecified)
system.caches.L2Cache_Controller.IS.Mem_Data |         558     13.59%     13.59% |         538     13.11%     26.70% |         497     12.11%     38.81% |         491     11.96%     50.77% |         491     11.96%     62.73% |         522     12.72%     75.44% |         490     11.94%     87.38% |         518     12.62%    100.00% (Unspecified)
system.caches.L2Cache_Controller.IS.Mem_Data::total         4105                       (Unspecified)
system.caches.L2Cache_Controller.IM.Mem_Data |         285     12.67%     12.67% |         281     12.49%     25.16% |         271     12.04%     37.20% |         272     12.09%     49.29% |         275     12.22%     61.51% |         292     12.98%     74.49% |         281     12.49%     86.98% |         293     13.02%    100.00% (Unspecified)
system.caches.L2Cache_Controller.IM.Mem_Data::total         2250                       (Unspecified)
system.caches.L2Cache_Controller.SS_MB.L1_GETS |           1      0.31%      0.31% |           0      0.00%      0.31% |           0      0.00%      0.31% |           0      0.00%      0.31% |           4      1.25%      1.56% |           0      0.00%      1.56% |         316     98.44%    100.00% |           0      0.00%    100.00% (Unspecified)
system.caches.L2Cache_Controller.SS_MB.L1_GETS::total          321                       (Unspecified)
system.caches.L2Cache_Controller.SS_MB.L1_GETX |           0      0.00%      0.00% |           0      0.00%      0.00% |           0      0.00%      0.00% |           0      0.00%      0.00% |           0      0.00%      0.00% |           0      0.00%      0.00% |           0      0.00%      0.00% |           1    100.00%    100.00% (Unspecified)
system.caches.L2Cache_Controller.SS_MB.L1_GETX::total            1                       (Unspecified)
system.caches.L2Cache_Controller.SS_MB.Exclusive_Unblock |        5347     12.69%     12.69% |        5339     12.67%     25.37% |        5236     12.43%     37.80% |        5181     12.30%     50.10% |        5039     11.96%     62.06% |        5169     12.27%     74.33% |        5755     13.66%     87.99% |        5059     12.01%    100.00% (Unspecified)
system.caches.L2Cache_Controller.SS_MB.Exclusive_Unblock::total        42125                       (Unspecified)
system.caches.L2Cache_Controller.MT_MB.L1_GETS |           0      0.00%      0.00% |           0      0.00%      0.00% |           0      0.00%      0.00% |           0      0.00%      0.00% |           0      0.00%      0.00% |           0      0.00%      0.00% |           0      0.00%      0.00% |           2    100.00%    100.00% (Unspecified)
system.caches.L2Cache_Controller.MT_MB.L1_GETS::total            2                       (Unspecified)
system.caches.L2Cache_Controller.MT_MB.L1_GETX |           0      0.00%      0.00% |           1    100.00%    100.00% |           0      0.00%    100.00% |           0      0.00%    100.00% |           0      0.00%    100.00% |           0      0.00%    100.00% |           0      0.00%    100.00% |           0      0.00%    100.00% (Unspecified)
system.caches.L2Cache_Controller.MT_MB.L1_GETX::total            1                       (Unspecified)
system.caches.L2Cache_Controller.MT_MB.Exclusive_Unblock |      218026     12.55%     12.55% |      218127     12.55%     25.10% |      215962     12.43%     37.53% |      215763     12.42%     49.95% |      216641     12.47%     62.42% |      218279     12.56%     74.99% |      217630     12.53%     87.51% |      216960     12.49%    100.00% (Unspecified)
system.caches.L2Cache_Controller.MT_MB.Exclusive_Unblock::total      1737388                       (Unspecified)
system.caches.L2Cache_Controller.MT_IIB.WB_Data |        3182     12.93%     12.93% |        3066     12.46%     25.38% |        2911     11.83%     37.21% |        2886     11.72%     48.93% |        3004     12.20%     61.14% |        3016     12.25%     73.39% |        3546     14.41%     87.80% |        3004     12.20%    100.00% (Unspecified)
system.caches.L2Cache_Controller.MT_IIB.WB_Data::total        24615                       (Unspecified)
system.caches.L2Cache_Controller.MT_IIB.WB_Data_clean |        4683     12.33%     12.33% |        4827     12.71%     25.03% |        4891     12.87%     37.91% |        4768     12.55%     50.46% |        4672     12.30%     62.76% |        4826     12.70%     75.46% |        4759     12.53%     87.99% |        4563     12.01%    100.00% (Unspecified)
system.caches.L2Cache_Controller.MT_IIB.WB_Data_clean::total        37989                       (Unspecified)
system.caches.L2Cache_Controller.MT_SB.L1_UPGRADE |           0      0.00%      0.00% |           0      0.00%      0.00% |           0      0.00%      0.00% |           0      0.00%      0.00% |           0      0.00%      0.00% |           0      0.00%      0.00% |         259    100.00%    100.00% |           0      0.00%    100.00% (Unspecified)
system.caches.L2Cache_Controller.MT_SB.L1_UPGRADE::total          259                       (Unspecified)
system.caches.L2Cache_Controller.MT_SB.Unblock |        7865     12.56%     12.56% |        7893     12.61%     25.17% |        7802     12.46%     37.63% |        7654     12.23%     49.86% |        7676     12.26%     62.12% |        7842     12.53%     74.65% |        8305     13.27%     87.91% |        7567     12.09%    100.00% (Unspecified)
system.caches.L2Cache_Controller.MT_SB.Unblock::total        62604                       (Unspecified)
system.caches.RequestType.LD.latency_hist_seqr::bucket_size          512                       (Unspecified)
[...]
system.timingCpu0.exec_context.thread_0.statExecutedInstType::SimdFloatMultAcc            0      0.00%     82.86% # Class of executed instruction. (Count)
system.timingCpu0.exec_context.thread_0.statExecutedInstType::SimdFloatSqrt            0      0.00%     82.86% # Class of executed instruction. (Count)
system.timingCpu0.exec_context.thread_0.statExecutedInstType::SimdReduceAdd            0      0.00%     82.86% # Class of executed instruction. (Count)
system.timingCpu0.exec_context.thread_0.statExecutedInstType::SimdReduceAlu            0      0.00%     82.86% # Class of executed instruction. (Count)
system.timingCpu0.exec_context.thread_0.statExecutedInstType::SimdReduceCmp            0      0.00%     82.86% # Class of executed instruction. (Count)
system.timingCpu0.exec_context.thread_0.statExecutedInstType::SimdFloatReduceAdd            0      0.00%     82.86% # Class of executed instruction. (Count)
system.timingCpu0.exec_context.thread_0.statExecutedInstType::SimdFloatReduceCmp            0      0.00%     82.86% # Class of executed instruction. (Count)
system.timingCpu0.exec_context.thread_0.statExecutedInstType::SimdAes            0      0.00%     82.86% # Class of executed instruction. (Count)
system.timingCpu0.exec_context.thread_0.statExecutedInstType::SimdAesMix            0      0.00%     82.86% # Class of executed instruction. (Count)
system.timingCpu0.exec_context.thread_0.statExecutedInstType::SimdSha1Hash            0      0.00%     82.86% # Class of executed instruction. (Count)
system.timingCpu0.exec_context.thread_0.statExecutedInstType::SimdSha1Hash2            0      0.00%     82.86% # Class of executed instruction. (Count)
system.timingCpu0.exec_context.thread_0.statExecutedInstType::SimdSha256Hash            0      0.00%     82.86% # Class of executed instruction. (Count)
system.timingCpu0.exec_context.thread_0.statExecutedInstType::SimdSha256Hash2            0      0.00%     82.86% # Class of executed instruction. (Count)
system.timingCpu0.exec_context.thread_0.statExecutedInstType::SimdShaSigma2            0      0.00%     82.86% # Class of executed instruction. (Count)
system.timingCpu0.exec_context.thread_0.statExecutedInstType::SimdShaSigma3            0      0.00%     82.86% # Class of executed instruction. (Count)
system.timingCpu0.exec_context.thread_0.statExecutedInstType::SimdPredAlu            0      0.00%     82.86% # Class of executed instruction. (Count)
system.timingCpu0.exec_context.thread_0.statExecutedInstType::MemRead     16188453     16.22%     99.08% # Class of executed instruction. (Count)
system.timingCpu0.exec_context.thread_0.statExecutedInstType::MemWrite       915318      0.92%    100.00% # Class of executed instruction. (Count)
system.timingCpu0.exec_context.thread_0.statExecutedInstType::FloatMemRead           70      0.00%    100.00% # Class of executed instruction. (Count)
system.timingCpu0.exec_context.thread_0.statExecutedInstType::FloatMemWrite           36      0.00%    100.00% # Class of executed instruction. (Count)
system.timingCpu0.exec_context.thread_0.statExecutedInstType::IprAccess            0      0.00%    100.00% # Class of executed instruction. (Count)
system.timingCpu0.exec_context.thread_0.statExecutedInstType::InstPrefetch            0      0.00%    100.00% # Class of executed instruction. (Count)
system.timingCpu0.exec_context.thread_0.statExecutedInstType::total     99815994                       # Class of executed instruction. (Count)
system.timingCpu0.mmu.dtb.rdAccesses         16615200                       # TLB accesses on read requests (Count)
system.timingCpu0.mmu.dtb.wrAccesses           915727                       # TLB accesses on write requests (Count)
system.timingCpu0.mmu.dtb.rdMisses             426677                       # TLB misses on read requests (Count)
system.timingCpu0.mmu.dtb.wrMisses                373                       # TLB misses on write requests (Count)
system.timingCpu0.mmu.dtb.walker.power_state.pwrStateResidencyTicks::UNDEFINED 156031257110751                       # Cumulative time (in ticks) in various power states (Tick)
system.timingCpu0.mmu.itb.rdAccesses                0                       # TLB accesses on read requests (Count)
system.timingCpu0.mmu.itb.wrAccesses         79511435                       # TLB accesses on write requests (Count)
system.timingCpu0.mmu.itb.rdMisses                  0                       # TLB misses on read requests (Count)
system.timingCpu0.mmu.itb.wrMisses                456                       # TLB misses on write requests (Count)
system.timingCpu0.mmu.itb.walker.power_state.pwrStateResidencyTicks::UNDEFINED 156031257110751                       # Cumulative time (in ticks) in various power states (Tick)
system.timingCpu0.power_state.pwrStateResidencyTicks::OFF 156031257110751                       # Cumulative time (in ticks) in various power states (Tick)
system.timingCpu0.thread_0.numInsts                 0                       # Number of Instructions committed (Count)
system.timingCpu0.thread_0.numOps                   0                       # Number of Ops committed (Count)
system.timingCpu0.thread_0.numMemRefs               0                       # Number of Memory References (Count)
system.timingCpu1.numCycles                 466939173                       # Number of cpu cycles simulated (Cycle)
system.timingCpu1.numWorkItemsStarted               0                       # Number of work items this cpu started (Count)
system.timingCpu1.numWorkItemsCompleted             1                       # Number of work items this cpu completed (Count)
system.timingCpu1.exec_context.thread_0.numInsts     61226787                       # Number of instructions committed (Count)
system.timingCpu1.exec_context.thread_0.numOps     95886082                       # Number of ops (including micro ops) committed (Count)
system.timingCpu1.exec_context.thread_0.numIntAluAccesses     95112108                       # Number of integer alu accesses (Count)
system.timingCpu1.exec_context.thread_0.numFpAluAccesses         4418                       # Number of float alu accesses (Count)
system.timingCpu1.exec_context.thread_0.numVecAluAccesses            0                       # Number of vector alu accesses (Count)
system.timingCpu1.exec_context.thread_0.numCallsReturns        60578                       # Number of times a function call or return occured (Count)
system.timingCpu1.exec_context.thread_0.numCondCtrlInsts      9687495                       # Number of instructions that are conditional controls (Count)
system.timingCpu1.exec_context.thread_0.numIntInsts     95112108                       # Number of integer instructions (Count)
system.timingCpu1.exec_context.thread_0.numFpInsts         4418                       # Number of float instructions (Count)
system.timingCpu1.exec_context.thread_0.numVecInsts            0                       # Number of vector instructions (Count)
system.timingCpu1.exec_context.thread_0.numIntRegReads    132870259                       # Number of times the integer registers were read (Count)
system.timingCpu1.exec_context.thread_0.numIntRegWrites     71930887                       # Number of times the integer registers were written (Count)
system.timingCpu1.exec_context.thread_0.numFpRegReads         4853                       # Number of times the floating registers were read (Count)
system.timingCpu1.exec_context.thread_0.numFpRegWrites         1660                       # Number of times the floating registers were written (Count)
system.timingCpu1.exec_context.thread_0.numVecRegReads            0                       # Number of times the vector registers were read (Count)
system.timingCpu1.exec_context.thread_0.numVecRegWrites            0                       # Number of times the vector registers were written (Count)
system.timingCpu1.exec_context.thread_0.numVecPredRegReads            0                       # Number of times the predicate registers were read (Count)
system.timingCpu1.exec_context.thread_0.numVecPredRegWrites            0                       # Number of times the predicate registers were written (Count)
system.timingCpu1.exec_context.thread_0.numCCRegReads     73590183                       # Number of times the CC registers were read (Count)
system.timingCpu1.exec_context.thread_0.numCCRegWrites     41936987                       # Number of times the CC registers were written (Count)
system.timingCpu1.exec_context.thread_0.numMiscRegReads     39679051                       # Number of times the Misc registers were read (Count)
system.timingCpu1.exec_context.thread_0.numMiscRegWrites         7322                       # Number of times the Misc registers were written (Count)
system.timingCpu1.exec_context.thread_0.numMemRefs     16991278                       # Number of memory refs (Count)
system.timingCpu1.exec_context.thread_0.numLoadInsts     15950973                       # Number of load instructions (Count)
system.timingCpu1.exec_context.thread_0.numStoreInsts      1040305                       # Number of store instructions (Count)
system.timingCpu1.exec_context.thread_0.numIdleCycles            0                       # Number of idle cycles (Cycle)
system.timingCpu1.exec_context.thread_0.numBusyCycles    466939173                       # Number of busy cycles (Cycle)
system.timingCpu1.exec_context.thread_0.notIdleFraction            1                       # Percentage of non-idle cycles (Ratio)
system.timingCpu1.exec_context.thread_0.idleFraction            0                       # Percentage of idle cycles (Ratio)
system.timingCpu1.exec_context.thread_0.numBranches     11350114                       # Number of branches fetched (Count)
system.timingCpu1.exec_context.thread_0.statExecutedInstType::No_OpClass         2184      0.00%      0.00% # Class of executed instruction. (Count)
system.timingCpu1.exec_context.thread_0.statExecutedInstType::IntAlu     78831212     82.21%     82.22% # Class of executed instruction. (Count)
system.timingCpu1.exec_context.thread_0.statExecutedInstType::IntMult        13630      0.01%     82.23% # Class of executed instruction. (Count)
system.timingCpu1.exec_context.thread_0.statExecutedInstType::IntDiv        46656      0.05%     82.28% # Class of executed instruction. (Count)
system.timingCpu1.exec_context.thread_0.statExecutedInstType::FloatAdd          138      0.00%     82.28% # Class of executed instruction. (Count)
system.timingCpu1.exec_context.thread_0.statExecutedInstType::FloatCmp            4      0.00%     82.28% # Class of executed instruction. (Count)
system.timingCpu1.exec_context.thread_0.statExecutedInstType::FloatCvt           96      0.00%     82.28% # Class of executed instruction. (Count)
system.timingCpu1.exec_context.thread_0.statExecutedInstType::FloatMult            5      0.00%     82.28% # Class of executed instruction. (Count)
system.timingCpu1.exec_context.thread_0.statExecutedInstType::FloatMultAcc            0      0.00%     82.28% # Class of executed instruction. (Count)
system.timingCpu1.exec_context.thread_0.statExecutedInstType::FloatDiv            4      0.00%     82.28% # Class of executed instruction. (Count)
system.timingCpu1.exec_context.thread_0.statExecutedInstType::FloatMisc            0      0.00%     82.28% # Class of executed instruction. (Count)
system.timingCpu1.exec_context.thread_0.statExecutedInstType::FloatSqrt            0      0.00%     82.28% # Class of executed instruction. (Count)
system.timingCpu1.exec_context.thread_0.statExecutedInstType::SimdAdd           74      0.00%     82.28% # Class of executed instruction. (Count)
system.timingCpu1.exec_context.thread_0.statExecutedInstType::SimdAddAcc            0      0.00%     82.28% # Class of executed instruction. (Count)
system.timingCpu1.exec_context.thread_0.statExecutedInstType::SimdAlu          269      0.00%     82.28% # Class of executed instruction. (Count)
system.timingCpu1.exec_context.thread_0.statExecutedInstType::SimdCmp            0      0.00%     82.28% # Class of executed instruction. (Count)
system.timingCpu1.exec_context.thread_0.statExecutedInstType::SimdCvt          182      0.00%     82.28% # Class of executed instruction. (Count)
system.timingCpu1.exec_context.thread_0.statExecutedInstType::SimdMisc          221      0.00%     82.28% # Class of executed instruction. (Count)
system.timingCpu1.exec_context.thread_0.statExecutedInstType::SimdMult            0      0.00%     82.28% # Class of executed instruction. (Count)
system.timingCpu1.exec_context.thread_0.statExecutedInstType::SimdMultAcc            0      0.00%     82.28% # Class of executed instruction. (Count)
system.timingCpu1.exec_context.thread_0.statExecutedInstType::SimdShift           49      0.00%     82.28% # Class of executed instruction. (Count)
system.timingCpu1.exec_context.thread_0.statExecutedInstType::SimdShiftAcc            0      0.00%     82.28% # Class of executed instruction. (Count)
system.timingCpu1.exec_context.thread_0.statExecutedInstType::SimdDiv            0      0.00%     82.28% # Class of executed instruction. (Count)
system.timingCpu1.exec_context.thread_0.statExecutedInstType::SimdSqrt            0      0.00%     82.28% # Class of executed instruction. (Count)
system.timingCpu1.exec_context.thread_0.statExecutedInstType::SimdFloatAdd           14      0.00%     82.28% # Class of executed instruction. (Count)
system.timingCpu1.exec_context.thread_0.statExecutedInstType::SimdFloatAlu            0      0.00%     82.28% # Class of executed instruction. (Count)
system.timingCpu1.exec_context.thread_0.statExecutedInstType::SimdFloatCmp            0      0.00%     82.28% # Class of executed instruction. (Count)
system.timingCpu1.exec_context.thread_0.statExecutedInstType::SimdFloatCvt           62      0.00%     82.28% # Class of executed instruction. (Count)
system.timingCpu1.exec_context.thread_0.statExecutedInstType::SimdFloatDiv            2      0.00%     82.28% # Class of executed instruction. (Count)
system.timingCpu1.exec_context.thread_0.statExecutedInstType::SimdFloatMisc            0      0.00%     82.28% # Class of executed instruction. (Count)
system.timingCpu1.exec_context.thread_0.statExecutedInstType::SimdFloatMult            2      0.00%     82.28% # Class of executed instruction. (Count)
system.timingCpu1.exec_context.thread_0.statExecutedInstType::SimdFloatMultAcc            0      0.00%     82.28% # Class of executed instruction. (Count)
system.timingCpu1.exec_context.thread_0.statExecutedInstType::SimdFloatSqrt            0      0.00%     82.28% # Class of executed instruction. (Count)
system.timingCpu1.exec_context.thread_0.statExecutedInstType::SimdReduceAdd            0      0.00%     82.28% # Class of executed instruction. (Count)
system.timingCpu1.exec_context.thread_0.statExecutedInstType::SimdReduceAlu            0      0.00%     82.28% # Class of executed instruction. (Count)
system.timingCpu1.exec_context.thread_0.statExecutedInstType::SimdReduceCmp            0      0.00%     82.28% # Class of executed instruction. (Count)
system.timingCpu1.exec_context.thread_0.statExecutedInstType::SimdFloatReduceAdd            0      0.00%     82.28% # Class of executed instruction. (Count)
system.timingCpu1.exec_context.thread_0.statExecutedInstType::SimdFloatReduceCmp            0      0.00%     82.28% # Class of executed instruction. (Count)
system.timingCpu1.exec_context.thread_0.statExecutedInstType::SimdAes            0      0.00%     82.28% # Class of executed instruction. (Count)
system.timingCpu1.exec_context.thread_0.statExecutedInstType::SimdAesMix            0      0.00%     82.28% # Class of executed instruction. (Count)
system.timingCpu1.exec_context.thread_0.statExecutedInstType::SimdSha1Hash            0      0.00%     82.28% # Class of executed instruction. (Count)
system.timingCpu1.exec_context.thread_0.statExecutedInstType::SimdSha1Hash2            0      0.00%     82.28% # Class of executed instruction. (Count)
system.timingCpu1.exec_context.thread_0.statExecutedInstType::SimdSha256Hash            0      0.00%     82.28% # Class of executed instruction. (Count)
system.timingCpu1.exec_context.thread_0.statExecutedInstType::SimdSha256Hash2            0      0.00%     82.28% # Class of executed instruction. (Count)
system.timingCpu1.exec_context.thread_0.statExecutedInstType::SimdShaSigma2            0      0.00%     82.28% # Class of executed instruction. (Count)
system.timingCpu1.exec_context.thread_0.statExecutedInstType::SimdShaSigma3            0      0.00%     82.28% # Class of executed instruction. (Count)
system.timingCpu1.exec_context.thread_0.statExecutedInstType::SimdPredAlu            0      0.00%     82.28% # Class of executed instruction. (Count)
system.timingCpu1.exec_context.thread_0.statExecutedInstType::MemRead     15950344     16.63%     98.91% # Class of executed instruction. (Count)
system.timingCpu1.exec_context.thread_0.statExecutedInstType::MemWrite      1037794      1.08%    100.00% # Class of executed instruction. (Count)
system.timingCpu1.exec_context.thread_0.statExecutedInstType::FloatMemRead          629      0.00%    100.00% # Class of executed instruction. (Count)
system.timingCpu1.exec_context.thread_0.statExecutedInstType::FloatMemWrite         2511      0.00%    100.00% # Class of executed instruction. (Count)
system.timingCpu1.exec_context.thread_0.statExecutedInstType::IprAccess            0      0.00%    100.00% # Class of executed instruction. (Count)
system.timingCpu1.exec_context.thread_0.statExecutedInstType::InstPrefetch            0      0.00%    100.00% # Class of executed instruction. (Count)
system.timingCpu1.exec_context.thread_0.statExecutedInstType::total     95886082                       # Class of executed instruction. (Count)
system.timingCpu1.mmu.dtb.rdAccesses         16381033                       # TLB accesses on read requests (Count)
system.timingCpu1.mmu.dtb.wrAccesses          1040334                       # TLB accesses on write requests (Count)
system.timingCpu1.mmu.dtb.rdMisses             430984                       # TLB misses on read requests (Count)
system.timingCpu1.mmu.dtb.wrMisses                354                       # TLB misses on write requests (Count)
system.timingCpu1.mmu.dtb.walker.power_state.pwrStateResidencyTicks::UNDEFINED 156031257110751                       # Cumulative time (in ticks) in various power states (Tick)
system.timingCpu1.mmu.itb.rdAccesses                0                       # TLB accesses on read requests (Count)
system.timingCpu1.mmu.itb.wrAccesses         76699061                       # TLB accesses on write requests (Count)
system.timingCpu1.mmu.itb.rdMisses                  0                       # TLB misses on read requests (Count)
system.timingCpu1.mmu.itb.wrMisses                721                       # TLB misses on write requests (Count)
system.timingCpu1.mmu.itb.walker.power_state.pwrStateResidencyTicks::UNDEFINED 156031257110751                       # Cumulative time (in ticks) in various power states (Tick)
system.timingCpu1.power_state.pwrStateResidencyTicks::OFF 156031257110751                       # Cumulative time (in ticks) in various power states (Tick)
system.timingCpu1.thread_0.numInsts                 0                       # Number of Instructions committed (Count)
system.timingCpu1.thread_0.numOps                   0                       # Number of Ops committed (Count)
system.timingCpu1.thread_0.numMemRefs               0                       # Number of Memory References (Count)
system.workload.inst.arm                            0                       # number of arm instructions executed (Count)
system.workload.inst.quiesce                        0                       # number of quiesce instructions executed (Count)

---------- End Simulation Statistics   ----------
