
---------- Begin Simulation Statistics ----------
simSeconds                                          2                       # Number of seconds simulated (Second)
simTicks                                 2000000000000                       # Number of ticks simulated (Tick)
finalTick                                21230867485500                       # Number of ticks from beginning of simulation (restored from checkpoints and never reset) (Tick)
simFreq                                  1000000000000                       # The number of ticks per simulated second ((Tick/Second))
hostSeconds                                   6052.43                       # Real time elapsed on the host (Second)
hostTickRate                                330445827                       # The number of ticks simulated per host second (ticks/s) ((Tick/Second))
hostMemory                                   12813716                       # Number of bytes of host memory used (Byte)
simInsts                                  24048484466                       # Number of instructions simulated (Count)
simOps                                    24739745154                       # Number of ops (including micro ops) simulated (Count)
hostInstRate                                  3973361                       # Simulator instruction rate (inst/s) ((Count/Second))
hostOpRate                                    4087573                       # Simulator op (including micro ops) rate (op/s) ((Count/Second))
system.atomicCpu0.numCycles                         0                       # Number of cpu cycles simulated (Cycle)
system.atomicCpu0.numWorkItemsStarted               0                       # Number of work items this cpu started (Count)
system.atomicCpu0.numWorkItemsCompleted             0                       # Number of work items this cpu completed (Count)
system.atomicCpu0.exec_context.thread_0.numInsts            0                       # Number of instructions committed (Count)
system.atomicCpu0.exec_context.thread_0.numOps            0                       # Number of ops (including micro ops) committed (Count)
system.atomicCpu0.exec_context.thread_0.numIntAluAccesses            0                       # Number of integer alu accesses (Count)
system.atomicCpu0.exec_context.thread_0.numFpAluAccesses            0                       # Number of float alu accesses (Count)
system.atomicCpu0.exec_context.thread_0.numVecAluAccesses            0                       # Number of vector alu accesses (Count)
system.atomicCpu0.exec_context.thread_0.numCallsReturns            0                       # Number of times a function call or return occured (Count)
system.atomicCpu0.exec_context.thread_0.numCondCtrlInsts            0                       # Number of instructions that are conditional controls (Count)
system.atomicCpu0.exec_context.thread_0.numIntInsts            0                       # Number of integer instructions (Count)
system.atomicCpu0.exec_context.thread_0.numFpInsts            0                       # Number of float instructions (Count)
system.atomicCpu0.exec_context.thread_0.numVecInsts            0                       # Number of vector instructions (Count)
system.atomicCpu0.exec_context.thread_0.numIntRegReads            0                       # Number of times the integer registers were read (Count)
system.atomicCpu0.exec_context.thread_0.numIntRegWrites            0                       # Number of times the integer registers were written (Count)
system.atomicCpu0.exec_context.thread_0.numFpRegReads            0                       # Number of times the floating registers were read (Count)
system.atomicCpu0.exec_context.thread_0.numFpRegWrites            0                       # Number of times the floating registers were written (Count)
system.atomicCpu0.exec_context.thread_0.numVecRegReads            0                       # Number of times the vector registers were read (Count)
system.atomicCpu0.exec_context.thread_0.numVecRegWrites            0                       # Number of times the vector registers were written (Count)
system.atomicCpu0.exec_context.thread_0.numVecPredRegReads            0                       # Number of times the predicate registers were read (Count)
system.atomicCpu0.exec_context.thread_0.numVecPredRegWrites            0                       # Number of times the predicate registers were written (Count)
system.atomicCpu0.exec_context.thread_0.numMiscRegReads            0                       # Number of times the Misc registers were read (Count)
system.atomicCpu0.exec_context.thread_0.numMiscRegWrites            0                       # Number of times the Misc registers were written (Count)
system.atomicCpu0.exec_context.thread_0.numMemRefs            0                       # Number of memory refs (Count)
system.atomicCpu0.exec_context.thread_0.numLoadInsts            0                       # Number of load instructions (Count)
system.atomicCpu0.exec_context.thread_0.numStoreInsts            0                       # Number of store instructions (Count)
system.atomicCpu0.exec_context.thread_0.numIdleCycles            0                       # Number of idle cycles (Cycle)
system.atomicCpu0.exec_context.thread_0.numBusyCycles            0                       # Number of busy cycles (Cycle)
system.atomicCpu0.exec_context.thread_0.notIdleFraction            0                       # Percentage of non-idle cycles (Ratio)
system.atomicCpu0.exec_context.thread_0.idleFraction            1                       # Percentage of idle cycles (Ratio)
system.atomicCpu0.exec_context.thread_0.statExecutedInstType::No_OpClass            0                       # Class of executed instruction. (Count)
system.atomicCpu0.exec_context.thread_0.statExecutedInstType::IntAlu            0                       # Class of executed instruction. (Count)
system.atomicCpu0.exec_context.thread_0.statExecutedInstType::IntMult            0                       # Class of executed instruction. (Count)
system.atomicCpu0.exec_context.thread_0.statExecutedInstType::IntDiv            0                       # Class of executed instruction. (Count)
system.atomicCpu0.exec_context.thread_0.statExecutedInstType::FloatAdd            0                       # Class of executed instruction. (Count)
system.atomicCpu0.exec_context.thread_0.statExecutedInstType::FloatCmp            0                       # Class of executed instruction. (Count)
system.atomicCpu0.exec_context.thread_0.statExecutedInstType::FloatCvt            0                       # Class of executed instruction. (Count)
system.atomicCpu0.exec_context.thread_0.statExecutedInstType::FloatMult            0                       # Class of executed instruction. (Count)
system.atomicCpu0.exec_context.thread_0.statExecutedInstType::FloatMultAcc            0                       # Class of executed instruction. (Count)
system.atomicCpu0.exec_context.thread_0.statExecutedInstType::FloatDiv            0                       # Class of executed instruction. (Count)
system.atomicCpu0.exec_context.thread_0.statExecutedInstType::FloatMisc            0                       # Class of executed instruction. (Count)
system.atomicCpu0.exec_context.thread_0.statExecutedInstType::FloatSqrt            0                       # Class of executed instruction. (Count)
system.atomicCpu0.exec_context.thread_0.statExecutedInstType::SimdAdd            0                       # Class of executed instruction. (Count)
system.atomicCpu0.exec_context.thread_0.statExecutedInstType::SimdAddAcc            0                       # Class of executed instruction. (Count)
system.atomicCpu0.exec_context.thread_0.statExecutedInstType::SimdAlu            0                       # Class of executed instruction. (Count)
system.atomicCpu0.exec_context.thread_0.statExecutedInstType::SimdCmp            0                       # Class of executed instruction. (Count)
system.atomicCpu0.exec_context.thread_0.statExecutedInstType::SimdCvt            0                       # Class of executed instruction. (Count)
system.atomicCpu0.exec_context.thread_0.statExecutedInstType::SimdMisc            0                       # Class of executed instruction. (Count)
system.atomicCpu0.exec_context.thread_0.statExecutedInstType::SimdMult            0                       # Class of executed instruction. (Count)
system.atomicCpu0.exec_context.thread_0.statExecutedInstType::SimdMultAcc            0                       # Class of executed instruction. (Count)
system.atomicCpu0.exec_context.thread_0.statExecutedInstType::SimdShift            0                       # Class of executed instruction. (Count)
system.atomicCpu0.exec_context.thread_0.statExecutedInstType::SimdShiftAcc            0                       # Class of executed instruction. (Count)
system.atomicCpu0.exec_context.thread_0.statExecutedInstType::SimdDiv            0                       # Class of executed instruction. (Count)
system.atomicCpu0.exec_context.thread_0.statExecutedInstType::SimdSqrt            0                       # Class of executed instruction. (Count)
system.atomicCpu0.exec_context.thread_0.statExecutedInstType::SimdFloatAdd            0                       # Class of executed instruction. (Count)
system.atomicCpu0.exec_context.thread_0.statExecutedInstType::SimdFloatAlu            0                       # Class of executed instruction. (Count)
system.atomicCpu0.exec_context.thread_0.statExecutedInstType::SimdFloatCmp            0                       # Class of executed instruction. (Count)
system.atomicCpu0.exec_context.thread_0.statExecutedInstType::SimdFloatCvt            0                       # Class of executed instruction. (Count)
system.atomicCpu0.exec_context.thread_0.statExecutedInstType::SimdFloatDiv            0                       # Class of executed instruction. (Count)
system.atomicCpu0.exec_context.thread_0.statExecutedInstType::SimdFloatMisc            0                       # Class of executed instruction. (Count)
system.atomicCpu0.exec_context.thread_0.statExecutedInstType::SimdFloatMult            0                       # Class of executed instruction. (Count)
system.atomicCpu0.exec_context.thread_0.statExecutedInstType::SimdFloatMultAcc            0                       # Class of executed instruction. (Count)
system.atomicCpu0.exec_context.thread_0.statExecutedInstType::SimdFloatSqrt            0                       # Class of executed instruction. (Count)
system.atomicCpu0.exec_context.thread_0.statExecutedInstType::SimdReduceAdd            0                       # Class of executed instruction. (Count)
system.atomicCpu0.exec_context.thread_0.statExecutedInstType::SimdReduceAlu            0                       # Class of executed instruction. (Count)
system.atomicCpu0.exec_context.thread_0.statExecutedInstType::SimdReduceCmp            0                       # Class of executed instruction. (Count)
system.atomicCpu0.exec_context.thread_0.statExecutedInstType::SimdFloatReduceAdd            0                       # Class of executed instruction. (Count)
system.atomicCpu0.exec_context.thread_0.statExecutedInstType::SimdFloatReduceCmp            0                       # Class of executed instruction. (Count)
system.atomicCpu0.exec_context.thread_0.statExecutedInstType::SimdAes            0                       # Class of executed instruction. (Count)
system.atomicCpu0.exec_context.thread_0.statExecutedInstType::SimdAesMix            0                       # Class of executed instruction. (Count)
system.atomicCpu0.exec_context.thread_0.statExecutedInstType::SimdSha1Hash            0                       # Class of executed instruction. (Count)
system.atomicCpu0.exec_context.thread_0.statExecutedInstType::SimdSha1Hash2            0                       # Class of executed instruction. (Count)
system.atomicCpu0.exec_context.thread_0.statExecutedInstType::SimdSha256Hash            0                       # Class of executed instruction. (Count)
system.atomicCpu0.exec_context.thread_0.statExecutedInstType::SimdSha256Hash2            0                       # Class of executed instruction. (Count)
system.atomicCpu0.exec_context.thread_0.statExecutedInstType::SimdShaSigma2            0                       # Class of executed instruction. (Count)
system.atomicCpu0.exec_context.thread_0.statExecutedInstType::SimdShaSigma3            0                       # Class of executed instruction. (Count)
system.atomicCpu0.exec_context.thread_0.statExecutedInstType::SimdPredAlu            0                       # Class of executed instruction. (Count)
system.atomicCpu0.exec_context.thread_0.statExecutedInstType::MemRead            0                       # Class of executed instruction. (Count)
system.atomicCpu0.exec_context.thread_0.statExecutedInstType::MemWrite            0                       # Class of executed instruction. (Count)
system.atomicCpu0.exec_context.thread_0.statExecutedInstType::FloatMemRead            0                       # Class of executed instruction. (Count)
system.atomicCpu0.exec_context.thread_0.statExecutedInstType::FloatMemWrite            0                       # Class of executed instruction. (Count)
system.atomicCpu0.exec_context.thread_0.statExecutedInstType::IprAccess            0                       # Class of executed instruction. (Count)
system.atomicCpu0.exec_context.thread_0.statExecutedInstType::InstPrefetch            0                       # Class of executed instruction. (Count)
system.atomicCpu0.exec_context.thread_0.statExecutedInstType::total            0                       # Class of executed instruction. (Count)
system.atomicCpu0.mmu.dtb.rdAccesses                0                       # TLB accesses on read requests (Count)
system.atomicCpu0.mmu.dtb.wrAccesses                0                       # TLB accesses on write requests (Count)
system.atomicCpu0.mmu.dtb.rdMisses                  0                       # TLB misses on read requests (Count)
system.atomicCpu0.mmu.dtb.wrMisses                  0                       # TLB misses on write requests (Count)
system.atomicCpu0.mmu.dtb.walker.power_state.pwrStateResidencyTicks::UNDEFINED 21230867485500                       # Cumulative time (in ticks) in various power states (Tick)
system.atomicCpu0.mmu.itb.rdAccesses                0                       # TLB accesses on read requests (Count)
system.atomicCpu0.mmu.itb.wrAccesses                0                       # TLB accesses on write requests (Count)
system.atomicCpu0.mmu.itb.rdMisses                  0                       # TLB misses on read requests (Count)
system.atomicCpu0.mmu.itb.wrMisses                  0                       # TLB misses on write requests (Count)
system.atomicCpu0.mmu.itb.walker.power_state.pwrStateResidencyTicks::UNDEFINED 21230867485500                       # Cumulative time (in ticks) in various power states (Tick)
system.atomicCpu0.power_state.pwrStateResidencyTicks::OFF 21230867485500                       # Cumulative time (in ticks) in various power states (Tick)
system.atomicCpu0.thread_0.numInsts                 0                       # Number of Instructions committed (Count)
system.atomicCpu0.thread_0.numOps                   0                       # Number of Ops committed (Count)
system.atomicCpu0.thread_0.numMemRefs               0                       # Number of Memory References (Count)
system.atomicCpu1.numCycles                         0                       # Number of cpu cycles simulated (Cycle)
system.atomicCpu1.numWorkItemsStarted               0                       # Number of work items this cpu started (Count)
system.atomicCpu1.numWorkItemsCompleted             0                       # Number of work items this cpu completed (Count)
system.atomicCpu1.exec_context.thread_0.numInsts            0                       # Number of instructions committed (Count)
system.atomicCpu1.exec_context.thread_0.numOps            0                       # Number of ops (including micro ops) committed (Count)
system.atomicCpu1.exec_context.thread_0.numIntAluAccesses            0                       # Number of integer alu accesses (Count)
system.atomicCpu1.exec_context.thread_0.numFpAluAccesses            0                       # Number of float alu accesses (Count)
system.atomicCpu1.exec_context.thread_0.numVecAluAccesses            0                       # Number of vector alu accesses (Count)
system.atomicCpu1.exec_context.thread_0.numCallsReturns            0                       # Number of times a function call or return occured (Count)
system.atomicCpu1.exec_context.thread_0.numCondCtrlInsts            0                       # Number of instructions that are conditional controls (Count)
system.atomicCpu1.exec_context.thread_0.numIntInsts            0                       # Number of integer instructions (Count)
system.atomicCpu1.exec_context.thread_0.numFpInsts            0                       # Number of float instructions (Count)
system.atomicCpu1.exec_context.thread_0.numVecInsts            0                       # Number of vector instructions (Count)
system.atomicCpu1.exec_context.thread_0.numIntRegReads            0                       # Number of times the integer registers were read (Count)
system.atomicCpu1.exec_context.thread_0.numIntRegWrites            0                       # Number of times the integer registers were written (Count)
system.atomicCpu1.exec_context.thread_0.numFpRegReads            0                       # Number of times the floating registers were read (Count)
system.atomicCpu1.exec_context.thread_0.numFpRegWrites            0                       # Number of times the floating registers were written (Count)
system.atomicCpu1.exec_context.thread_0.numVecRegReads            0                       # Number of times the vector registers were read (Count)
system.atomicCpu1.exec_context.thread_0.numVecRegWrites            0                       # Number of times the vector registers were written (Count)
system.atomicCpu1.exec_context.thread_0.numVecPredRegReads            0                       # Number of times the predicate registers were read (Count)
system.atomicCpu1.exec_context.thread_0.numVecPredRegWrites            0                       # Number of times the predicate registers were written (Count)
system.atomicCpu1.exec_context.thread_0.numMiscRegReads            0                       # Number of times the Misc registers were read (Count)
system.atomicCpu1.exec_context.thread_0.numMiscRegWrites            0                       # Number of times the Misc registers were written (Count)
system.atomicCpu1.exec_context.thread_0.numMemRefs            0                       # Number of memory refs (Count)
system.atomicCpu1.exec_context.thread_0.numLoadInsts            0                       # Number of load instructions (Count)
system.atomicCpu1.exec_context.thread_0.numStoreInsts            0                       # Number of store instructions (Count)
system.atomicCpu1.exec_context.thread_0.numIdleCycles            0                       # Number of idle cycles (Cycle)
system.atomicCpu1.exec_context.thread_0.numBusyCycles            0                       # Number of busy cycles (Cycle)
system.atomicCpu1.exec_context.thread_0.notIdleFraction            0                       # Percentage of non-idle cycles (Ratio)
system.atomicCpu1.exec_context.thread_0.idleFraction            1                       # Percentage of idle cycles (Ratio)
system.atomicCpu1.exec_context.thread_0.statExecutedInstType::No_OpClass            0                       # Class of executed instruction. (Count)
system.atomicCpu1.exec_context.thread_0.statExecutedInstType::IntAlu            0                       # Class of executed instruction. (Count)
system.atomicCpu1.exec_context.thread_0.statExecutedInstType::IntMult            0                       # Class of executed instruction. (Count)
system.atomicCpu1.exec_context.thread_0.statExecutedInstType::IntDiv            0                       # Class of executed instruction. (Count)
system.atomicCpu1.exec_context.thread_0.statExecutedInstType::FloatAdd            0                       # Class of executed instruction. (Count)
system.atomicCpu1.exec_context.thread_0.statExecutedInstType::FloatCmp            0                       # Class of executed instruction. (Count)
system.atomicCpu1.exec_context.thread_0.statExecutedInstType::FloatCvt            0                       # Class of executed instruction. (Count)
system.atomicCpu1.exec_context.thread_0.statExecutedInstType::FloatMult            0                       # Class of executed instruction. (Count)
system.atomicCpu1.exec_context.thread_0.statExecutedInstType::FloatMultAcc            0                       # Class of executed instruction. (Count)
system.atomicCpu1.exec_context.thread_0.statExecutedInstType::FloatDiv            0                       # Class of executed instruction. (Count)
system.atomicCpu1.exec_context.thread_0.statExecutedInstType::FloatMisc            0                       # Class of executed instruction. (Count)
system.atomicCpu1.exec_context.thread_0.statExecutedInstType::FloatSqrt            0                       # Class of executed instruction. (Count)
system.atomicCpu1.exec_context.thread_0.statExecutedInstType::SimdAdd            0                       # Class of executed instruction. (Count)
system.atomicCpu1.exec_context.thread_0.statExecutedInstType::SimdAddAcc            0                       # Class of executed instruction. (Count)
system.atomicCpu1.exec_context.thread_0.statExecutedInstType::SimdAlu            0                       # Class of executed instruction. (Count)
system.atomicCpu1.exec_context.thread_0.statExecutedInstType::SimdCmp            0                       # Class of executed instruction. (Count)
system.atomicCpu1.exec_context.thread_0.statExecutedInstType::SimdCvt            0                       # Class of executed instruction. (Count)
system.atomicCpu1.exec_context.thread_0.statExecutedInstType::SimdMisc            0                       # Class of executed instruction. (Count)
system.atomicCpu1.exec_context.thread_0.statExecutedInstType::SimdMult            0                       # Class of executed instruction. (Count)
system.atomicCpu1.exec_context.thread_0.statExecutedInstType::SimdMultAcc            0                       # Class of executed instruction. (Count)
system.atomicCpu1.exec_context.thread_0.statExecutedInstType::SimdShift            0                       # Class of executed instruction. (Count)
system.atomicCpu1.exec_context.thread_0.statExecutedInstType::SimdShiftAcc            0                       # Class of executed instruction. (Count)
system.atomicCpu1.exec_context.thread_0.statExecutedInstType::SimdDiv            0                       # Class of executed instruction. (Count)
system.atomicCpu1.exec_context.thread_0.statExecutedInstType::SimdSqrt            0                       # Class of executed instruction. (Count)
system.atomicCpu1.exec_context.thread_0.statExecutedInstType::SimdFloatAdd            0                       # Class of executed instruction. (Count)
system.atomicCpu1.exec_context.thread_0.statExecutedInstType::SimdFloatAlu            0                       # Class of executed instruction. (Count)
system.atomicCpu1.exec_context.thread_0.statExecutedInstType::SimdFloatCmp            0                       # Class of executed instruction. (Count)
system.atomicCpu1.exec_context.thread_0.statExecutedInstType::SimdFloatCvt            0                       # Class of executed instruction. (Count)
system.atomicCpu1.exec_context.thread_0.statExecutedInstType::SimdFloatDiv            0                       # Class of executed instruction. (Count)
system.atomicCpu1.exec_context.thread_0.statExecutedInstType::SimdFloatMisc            0                       # Class of executed instruction. (Count)
system.atomicCpu1.exec_context.thread_0.statExecutedInstType::SimdFloatMult            0                       # Class of executed instruction. (Count)
system.atomicCpu1.exec_context.thread_0.statExecutedInstType::SimdFloatMultAcc            0                       # Class of executed instruction. (Count)
system.atomicCpu1.exec_context.thread_0.statExecutedInstType::SimdFloatSqrt            0                       # Class of executed instruction. (Count)
system.atomicCpu1.exec_context.thread_0.statExecutedInstType::SimdReduceAdd            0                       # Class of executed instruction. (Count)
system.atomicCpu1.exec_context.thread_0.statExecutedInstType::SimdReduceAlu            0                       # Class of executed instruction. (Count)
system.atomicCpu1.exec_context.thread_0.statExecutedInstType::SimdReduceCmp            0                       # Class of executed instruction. (Count)
system.atomicCpu1.exec_context.thread_0.statExecutedInstType::SimdFloatReduceAdd            0                       # Class of executed instruction. (Count)
system.atomicCpu1.exec_context.thread_0.statExecutedInstType::SimdFloatReduceCmp            0                       # Class of executed instruction. (Count)
system.atomicCpu1.exec_context.thread_0.statExecutedInstType::SimdAes            0                       # Class of executed instruction. (Count)
system.atomicCpu1.exec_context.thread_0.statExecutedInstType::SimdAesMix            0                       # Class of executed instruction. (Count)
system.atomicCpu1.exec_context.thread_0.statExecutedInstType::SimdSha1Hash            0                       # Class of executed instruction. (Count)
system.atomicCpu1.exec_context.thread_0.statExecutedInstType::SimdSha1Hash2            0                       # Class of executed instruction. (Count)
system.atomicCpu1.exec_context.thread_0.statExecutedInstType::SimdSha256Hash            0                       # Class of executed instruction. (Count)
system.atomicCpu1.exec_context.thread_0.statExecutedInstType::SimdSha256Hash2            0                       # Class of executed instruction. (Count)
system.atomicCpu1.exec_context.thread_0.statExecutedInstType::SimdShaSigma2            0                       # Class of executed instruction. (Count)
system.atomicCpu1.exec_context.thread_0.statExecutedInstType::SimdShaSigma3            0                       # Class of executed instruction. (Count)
system.atomicCpu1.exec_context.thread_0.statExecutedInstType::SimdPredAlu            0                       # Class of executed instruction. (Count)
system.atomicCpu1.exec_context.thread_0.statExecutedInstType::MemRead            0                       # Class of executed instruction. (Count)
system.atomicCpu1.exec_context.thread_0.statExecutedInstType::MemWrite            0                       # Class of executed instruction. (Count)
system.atomicCpu1.exec_context.thread_0.statExecutedInstType::FloatMemRead            0                       # Class of executed instruction. (Count)
system.atomicCpu1.exec_context.thread_0.statExecutedInstType::FloatMemWrite            0                       # Class of executed instruction. (Count)
system.atomicCpu1.exec_context.thread_0.statExecutedInstType::IprAccess            0                       # Class of executed instruction. (Count)
system.atomicCpu1.exec_context.thread_0.statExecutedInstType::InstPrefetch            0                       # Class of executed instruction. (Count)
system.atomicCpu1.exec_context.thread_0.statExecutedInstType::total            0                       # Class of executed instruction. (Count)
system.atomicCpu1.mmu.dtb.rdAccesses                0                       # TLB accesses on read requests (Count)
system.atomicCpu1.mmu.dtb.wrAccesses                0                       # TLB accesses on write requests (Count)
system.atomicCpu1.mmu.dtb.rdMisses                  0                       # TLB misses on read requests (Count)
system.atomicCpu1.mmu.dtb.wrMisses                  0                       # TLB misses on write requests (Count)
system.atomicCpu1.mmu.dtb.walker.power_state.pwrStateResidencyTicks::UNDEFINED 21230867485500                       # Cumulative time (in ticks) in various power states (Tick)
system.atomicCpu1.mmu.itb.rdAccesses                0                       # TLB accesses on read requests (Count)
system.atomicCpu1.mmu.itb.wrAccesses                0                       # TLB accesses on write requests (Count)
system.atomicCpu1.mmu.itb.rdMisses                  0                       # TLB misses on read requests (Count)
system.atomicCpu1.mmu.itb.wrMisses                  0                       # TLB misses on write requests (Count)
system.atomicCpu1.mmu.itb.walker.power_state.pwrStateResidencyTicks::UNDEFINED 21230867485500                       # Cumulative time (in ticks) in various power states (Tick)
system.atomicCpu1.power_state.pwrStateResidencyTicks::OFF 21230867485500                       # Cumulative time (in ticks) in various power states (Tick)
system.atomicCpu1.thread_0.numInsts                 0                       # Number of Instructions committed (Count)
system.atomicCpu1.thread_0.numOps                   0                       # Number of Ops committed (Count)
system.atomicCpu1.thread_0.numMemRefs               0                       # Number of Memory References (Count)
system.caches.delayHistogram::bucket_size           64                       # delay histogram for all message (Unspecified)
system.caches.delayHistogram::max_bucket          639                       # delay histogram for all message (Unspecified)
system.caches.delayHistogram::samples       158391007                       # delay histogram for all message (Unspecified)
system.caches.delayHistogram::mean           0.557973                       # delay histogram for all message (Unspecified)
system.caches.delayHistogram::stdev          2.045992                       # delay histogram for all message (Unspecified)
system.caches.delayHistogram             |   158390935    100.00%    100.00% |          70      0.00%    100.00% |           0      0.00%    100.00% |           0      0.00%    100.00% |           0      0.00%    100.00% |           0      0.00%    100.00% |           0      0.00%    100.00% |           0      0.00%    100.00% |           1      0.00%    100.00% |           1      0.00%    100.00% # delay histogram for all message (Unspecified)
system.caches.delayHistogram::total         158391007                       # delay histogram for all message (Unspecified)
system.caches.m_outstandReqHistSeqr::bucket_size            1                       (Unspecified)
system.caches.m_outstandReqHistSeqr::max_bucket            9                       (Unspecified)
system.caches.m_outstandReqHistSeqr::samples   2324505192                       (Unspecified)
system.caches.m_outstandReqHistSeqr::mean            1                       (Unspecified)
system.caches.m_outstandReqHistSeqr::gmean            1                       (Unspecified)
system.caches.m_outstandReqHistSeqr      |           0      0.00%      0.00% |  2324505192    100.00%    100.00% |           0      0.00%    100.00% |           0      0.00%    100.00% |           0      0.00%    100.00% |           0      0.00%    100.00% |           0      0.00%    100.00% |           0      0.00%    100.00% |           0      0.00%    100.00% |           0      0.00%    100.00% (Unspecified)
system.caches.m_outstandReqHistSeqr::total   2324505192                       (Unspecified)
system.caches.m_latencyHistSeqr::bucket_size          512                       (Unspecified)
system.caches.m_latencyHistSeqr::max_bucket         5119                       (Unspecified)
system.caches.m_latencyHistSeqr::samples   2324505192                       (Unspecified)
system.caches.m_latencyHistSeqr::mean        5.864416                       (Unspecified)
system.caches.m_latencyHistSeqr::gmean       1.059675                       (Unspecified)
system.caches.m_latencyHistSeqr::stdev      56.741784                       (Unspecified)
system.caches.m_latencyHistSeqr          |  2312293425     99.47%     99.47% |    11714044      0.50%     99.98% |       92831      0.00%     99.98% |      358137      0.02%    100.00% |       46239      0.00%    100.00% |         513      0.00%    100.00% |           3      0.00%    100.00% |           0      0.00%    100.00% |           0      0.00%    100.00% |           0      0.00%    100.00% (Unspecified)
system.caches.m_latencyHistSeqr::total     2324505192                       (Unspecified)
system.caches.m_hitLatencyHistSeqr::bucket_size            1                       (Unspecified)
system.caches.m_hitLatencyHistSeqr::max_bucket            9                       (Unspecified)
system.caches.m_hitLatencyHistSeqr::samples   2300323132                       (Unspecified)
system.caches.m_hitLatencyHistSeqr::mean            1                       (Unspecified)
system.caches.m_hitLatencyHistSeqr::gmean            1                       (Unspecified)
system.caches.m_hitLatencyHistSeqr       |           0      0.00%      0.00% |  2300323132    100.00%    100.00% |           0      0.00%    100.00% |           0      0.00%    100.00% |           0      0.00%    100.00% |           0      0.00%    100.00% |           0      0.00%    100.00% |           0      0.00%    100.00% |           0      0.00%    100.00% |           0      0.00%    100.00% (Unspecified)
system.caches.m_hitLatencyHistSeqr::total   2300323132                       (Unspecified)
system.caches.m_missLatencyHistSeqr::bucket_size          512                       (Unspecified)
system.caches.m_missLatencyHistSeqr::max_bucket         5119                       (Unspecified)
system.caches.m_missLatencyHistSeqr::samples     24182060                       (Unspecified)
system.caches.m_missLatencyHistSeqr::mean   468.592912                       (Unspecified)
system.caches.m_missLatencyHistSeqr::gmean   262.863855                       (Unspecified)
system.caches.m_missLatencyHistSeqr::stdev   305.154059                       (Unspecified)
system.caches.m_missLatencyHistSeqr      |    11970293     49.50%     49.50% |    11714044     48.44%     97.94% |       92831      0.38%     98.33% |      358137      1.48%     99.81% |       46239      0.19%    100.00% |         513      0.00%    100.00% |           3      0.00%    100.00% |           0      0.00%    100.00% |           0      0.00%    100.00% |           0      0.00%    100.00% (Unspecified)
system.caches.m_missLatencyHistSeqr::total     24182060                       (Unspecified)
system.caches.delayVCHist.vnet_0::bucket_size           64                       # delay histogram for vnet_0 (Unspecified)
system.caches.delayVCHist.vnet_0::max_bucket          639                       # delay histogram for vnet_0 (Unspecified)
system.caches.delayVCHist.vnet_0::samples     72037952                       # delay histogram for vnet_0 (Unspecified)
system.caches.delayVCHist.vnet_0::mean       1.226085                       # delay histogram for vnet_0 (Unspecified)
system.caches.delayVCHist.vnet_0::stdev      2.895059                       # delay histogram for vnet_0 (Unspecified)
system.caches.delayVCHist.vnet_0         |    72037880    100.00%    100.00% |          70      0.00%    100.00% |           0      0.00%    100.00% |           0      0.00%    100.00% |           0      0.00%    100.00% |           0      0.00%    100.00% |           0      0.00%    100.00% |           0      0.00%    100.00% |           1      0.00%    100.00% |           1      0.00%    100.00% # delay histogram for vnet_0 (Unspecified)
system.caches.delayVCHist.vnet_0::total      72037952                       # delay histogram for vnet_0 (Unspecified)
system.caches.delayVCHist.vnet_1::bucket_size            2                       # delay histogram for vnet_1 (Unspecified)
system.caches.delayVCHist.vnet_1::max_bucket           19                       # delay histogram for vnet_1 (Unspecified)
system.caches.delayVCHist.vnet_1::samples     86240132                       # delay histogram for vnet_1 (Unspecified)
system.caches.delayVCHist.vnet_1::mean       0.000618                       # delay histogram for vnet_1 (Unspecified)
system.caches.delayVCHist.vnet_1::stdev      0.057027                       # delay histogram for vnet_1 (Unspecified)
system.caches.delayVCHist.vnet_1         |    86227799     99.99%     99.99% |        4059      0.00%     99.99% |        3614      0.00%     99.99% |        3288      0.00%    100.00% |        1366      0.00%    100.00% |           5      0.00%    100.00% |           1      0.00%    100.00% |           0      0.00%    100.00% |           0      0.00%    100.00% |           0      0.00%    100.00% # delay histogram for vnet_1 (Unspecified)
system.caches.delayVCHist.vnet_1::total      86240132                       # delay histogram for vnet_1 (Unspecified)
system.caches.delayVCHist.vnet_2::bucket_size            1                       # delay histogram for vnet_2 (Unspecified)
system.caches.delayVCHist.vnet_2::max_bucket            9                       # delay histogram for vnet_2 (Unspecified)
system.caches.delayVCHist.vnet_2::samples       112923                       # delay histogram for vnet_2 (Unspecified)
system.caches.delayVCHist.vnet_2::mean       0.000213                       # delay histogram for vnet_2 (Unspecified)
system.caches.delayVCHist.vnet_2::stdev      0.020616                       # delay histogram for vnet_2 (Unspecified)
system.caches.delayVCHist.vnet_2         |      112911     99.99%     99.99% |           0      0.00%     99.99% |          12      0.01%    100.00% |           0      0.00%    100.00% |           0      0.00%    100.00% |           0      0.00%    100.00% |           0      0.00%    100.00% |           0      0.00%    100.00% |           0      0.00%    100.00% |           0      0.00%    100.00% # delay histogram for vnet_2 (Unspecified)
system.caches.delayVCHist.vnet_2::total        112923                       # delay histogram for vnet_2 (Unspecified)
system.caches.L1Cache_Controller.Load    |   190048044     50.08%     50.08% |   189446367     49.92%    100.00% (Unspecified)
system.caches.L1Cache_Controller.Load::total    379494411                       (Unspecified)
system.caches.L1Cache_Controller.Ifetch  |   889145772     50.04%     50.04% |   887882713     49.96%    100.00% (Unspecified)
system.caches.L1Cache_Controller.Ifetch::total   1777028485                       (Unspecified)
system.caches.L1Cache_Controller.Store   |    84049547     50.03%     50.03% |    83932749     49.97%    100.00% (Unspecified)
system.caches.L1Cache_Controller.Store::total    167982296                       (Unspecified)
system.caches.L1Cache_Controller.Inv     |       45547     47.44%     47.44% |       50464     52.56%    100.00% (Unspecified)
system.caches.L1Cache_Controller.Inv::total        96011                       (Unspecified)
system.caches.L1Cache_Controller.L1_Replacement |    12012966     49.92%     49.92% |    12052076     50.08%    100.00% (Unspecified)
system.caches.L1Cache_Controller.L1_Replacement::total     24065042                       (Unspecified)
system.caches.L1Cache_Controller.Fwd_GETX |          75     32.89%     32.89% |         153     67.11%    100.00% (Unspecified)
system.caches.L1Cache_Controller.Fwd_GETX::total          228                       (Unspecified)
system.caches.L1Cache_Controller.Fwd_GETS |       14902     89.32%     89.32% |        1782     10.68%    100.00% (Unspecified)
system.caches.L1Cache_Controller.Fwd_GETS::total        16684                       (Unspecified)
system.caches.L1Cache_Controller.Data    |         868     99.43%     99.43% |           5      0.57%    100.00% (Unspecified)
system.caches.L1Cache_Controller.Data::total          873                       (Unspecified)
system.caches.L1Cache_Controller.Data_Exclusive |     8851964     49.92%     49.92% |     8880470     50.08%    100.00% (Unspecified)
system.caches.L1Cache_Controller.Data_Exclusive::total     17732434                       (Unspecified)
system.caches.L1Cache_Controller.DataS_fromL1 |        1782     10.68%     10.68% |       14902     89.32%    100.00% (Unspecified)
system.caches.L1Cache_Controller.DataS_fromL1::total        16684                       (Unspecified)
system.caches.L1Cache_Controller.Data_all_Acks |     3206612     49.96%     49.96% |     3211784     50.04%    100.00% (Unspecified)
system.caches.L1Cache_Controller.Data_all_Acks::total      6418396                       (Unspecified)
system.caches.L1Cache_Controller.Ack     |       13465     98.48%     98.48% |         208      1.52%    100.00% (Unspecified)
system.caches.L1Cache_Controller.Ack::total        13673                       (Unspecified)
system.caches.L1Cache_Controller.Ack_all |       14333     98.54%     98.54% |         213      1.46%    100.00% (Unspecified)
system.caches.L1Cache_Controller.Ack_all::total        14546                       (Unspecified)
system.caches.L1Cache_Controller.WB_Ack  |    11911879     49.85%     49.85% |    11984058     50.15%    100.00% (Unspecified)
system.caches.L1Cache_Controller.WB_Ack::total     23895937                       (Unspecified)
system.caches.L1Cache_Controller.NP.Load |     8866313     49.92%     49.92% |     8895567     50.08%    100.00% (Unspecified)
system.caches.L1Cache_Controller.NP.Load::total     17761880                       (Unspecified)
system.caches.L1Cache_Controller.NP.Ifetch |       78982     62.06%     62.06% |       48293     37.94%    100.00% (Unspecified)
system.caches.L1Cache_Controller.NP.Ifetch::total       127275                       (Unspecified)
system.caches.L1Cache_Controller.NP.Store |     3076373     49.67%     49.67% |     3116905     50.33%    100.00% (Unspecified)
system.caches.L1Cache_Controller.NP.Store::total      6193278                       (Unspecified)
system.caches.L1Cache_Controller.NP.Inv  |        2137     48.01%     48.01% |        2314     51.99%    100.00% (Unspecified)
system.caches.L1Cache_Controller.NP.Inv::total         4451                       (Unspecified)
system.caches.L1Cache_Controller.I.Load  |        6808     26.16%     26.16% |       19220     73.84%    100.00% (Unspecified)
system.caches.L1Cache_Controller.I.Load::total        26028                       (Unspecified)
system.caches.L1Cache_Controller.I.Ifetch |       30371     54.20%     54.20% |       25669     45.80%    100.00% (Unspecified)
system.caches.L1Cache_Controller.I.Ifetch::total        56040                       (Unspecified)
system.caches.L1Cache_Controller.I.Store |        2379     61.25%     61.25% |        1505     38.75%    100.00% (Unspecified)
system.caches.L1Cache_Controller.I.Store::total         3884                       (Unspecified)
system.caches.L1Cache_Controller.I.L1_Replacement |        3643     69.43%     69.43% |        1604     30.57%    100.00% (Unspecified)
system.caches.L1Cache_Controller.I.L1_Replacement::total         5247                       (Unspecified)
system.caches.L1Cache_Controller.S.Load  |      421739     44.79%     44.79% |      519823     55.21%    100.00% (Unspecified)
system.caches.L1Cache_Controller.S.Load::total       941562                       (Unspecified)
system.caches.L1Cache_Controller.S.Ifetch |   889036419     50.03%     50.03% |   887808751     49.97%    100.00% (Unspecified)
system.caches.L1Cache_Controller.S.Ifetch::total   1776845170                       (Unspecified)
system.caches.L1Cache_Controller.S.Store |       13465     98.46%     98.46% |         210      1.54%    100.00% (Unspecified)
system.caches.L1Cache_Controller.S.Store::total        13675                       (Unspecified)
system.caches.L1Cache_Controller.S.Inv   |       34200     44.21%     44.21% |       43166     55.79%    100.00% (Unspecified)
system.caches.L1Cache_Controller.S.Inv::total        77366                       (Unspecified)
system.caches.L1Cache_Controller.S.L1_Replacement |       97444     59.47%     59.47% |       66414     40.53%    100.00% (Unspecified)
system.caches.L1Cache_Controller.S.L1_Replacement::total       163858                       (Unspecified)
system.caches.L1Cache_Controller.E.Load  |    81590926     51.27%     51.27% |    77541155     48.73%    100.00% (Unspecified)
system.caches.L1Cache_Controller.E.Load::total    159132081                       (Unspecified)
system.caches.L1Cache_Controller.E.Store |     2385813     50.02%     50.02% |     2384115     49.98%    100.00% (Unspecified)
system.caches.L1Cache_Controller.E.Store::total      4769928                       (Unspecified)
system.caches.L1Cache_Controller.E.Inv   |        5166     66.85%     66.85% |        2562     33.15%    100.00% (Unspecified)
system.caches.L1Cache_Controller.E.Inv::total         7728                       (Unspecified)
system.caches.L1Cache_Controller.E.L1_Replacement |     6454929     49.88%     49.88% |     6486662     50.12%    100.00% (Unspecified)
system.caches.L1Cache_Controller.E.L1_Replacement::total     12941591                       (Unspecified)
system.caches.L1Cache_Controller.E.Fwd_GETX |           8      5.56%      5.56% |         136     94.44%    100.00% (Unspecified)
system.caches.L1Cache_Controller.E.Fwd_GETX::total          144                       (Unspecified)
system.caches.L1Cache_Controller.E.Fwd_GETS |         730     30.49%     30.49% |        1664     69.51%    100.00% (Unspecified)
system.caches.L1Cache_Controller.E.Fwd_GETS::total         2394                       (Unspecified)
system.caches.L1Cache_Controller.M.Load  |    99162258     49.18%     49.18% |   102470602     50.82%    100.00% (Unspecified)
system.caches.L1Cache_Controller.M.Load::total    201632860                       (Unspecified)
system.caches.L1Cache_Controller.M.Store |    78571517     50.05%     50.05% |    78430014     49.95%    100.00% (Unspecified)
system.caches.L1Cache_Controller.M.Store::total    157001531                       (Unspecified)
system.caches.L1Cache_Controller.M.Inv   |        4044     62.56%     62.56% |        2420     37.44%    100.00% (Unspecified)
system.caches.L1Cache_Controller.M.Inv::total         6464                       (Unspecified)
system.caches.L1Cache_Controller.M.L1_Replacement |     5456950     49.82%     49.82% |     5497396     50.18%    100.00% (Unspecified)
system.caches.L1Cache_Controller.M.L1_Replacement::total     10954346                       (Unspecified)
system.caches.L1Cache_Controller.M.Fwd_GETX |          67     79.76%     79.76% |          17     20.24%    100.00% (Unspecified)
system.caches.L1Cache_Controller.M.Fwd_GETX::total           84                       (Unspecified)
system.caches.L1Cache_Controller.M.Fwd_GETS |       14172     99.17%     99.17% |         118      0.83%    100.00% (Unspecified)
system.caches.L1Cache_Controller.M.Fwd_GETS::total        14290                       (Unspecified)
system.caches.L1Cache_Controller.IS.Data_Exclusive |     8851964     49.92%     49.92% |     8880470     50.08%    100.00% (Unspecified)
system.caches.L1Cache_Controller.IS.Data_Exclusive::total     17732434                       (Unspecified)
system.caches.L1Cache_Controller.IS.DataS_fromL1 |        1782     10.68%     10.68% |       14902     89.32%    100.00% (Unspecified)
system.caches.L1Cache_Controller.IS.DataS_fromL1::total        16684                       (Unspecified)
system.caches.L1Cache_Controller.IS.Data_all_Acks |      128728     57.96%     57.96% |       93377     42.04%    100.00% (Unspecified)
system.caches.L1Cache_Controller.IS.Data_all_Acks::total       222105                       (Unspecified)
system.caches.L1Cache_Controller.IM.Data |         868     99.43%     99.43% |           5      0.57%    100.00% (Unspecified)
system.caches.L1Cache_Controller.IM.Data::total          873                       (Unspecified)
system.caches.L1Cache_Controller.IM.Data_all_Acks |     3077884     49.67%     49.67% |     3118407     50.33%    100.00% (Unspecified)
system.caches.L1Cache_Controller.IM.Data_all_Acks::total      6196291                       (Unspecified)
system.caches.L1Cache_Controller.SM.Inv  |           0      0.00%      0.00% |           2    100.00%    100.00% (Unspecified)
system.caches.L1Cache_Controller.SM.Inv::total            2                       (Unspecified)
system.caches.L1Cache_Controller.SM.Ack  |       13465     98.48%     98.48% |         208      1.52%    100.00% (Unspecified)
system.caches.L1Cache_Controller.SM.Ack::total        13673                       (Unspecified)
system.caches.L1Cache_Controller.SM.Ack_all |       14333     98.54%     98.54% |         213      1.46%    100.00% (Unspecified)
system.caches.L1Cache_Controller.SM.Ack_all::total        14546                       (Unspecified)
system.caches.L1Cache_Controller.M_I.WB_Ack |    11911879     49.85%     49.85% |    11984058     50.15%    100.00% (Unspecified)
system.caches.L1Cache_Controller.M_I.WB_Ack::total     23895937                       (Unspecified)
system.caches.Directory_Controller.Fetch     19089069      0.00%      0.00% (Unspecified)
system.caches.Directory_Controller.Data       8529036      0.00%      0.00% (Unspecified)
system.caches.Directory_Controller.Memory_Data     19089098      0.00%      0.00% (Unspecified)
system.caches.Directory_Controller.Memory_Ack      8529036      0.00%      0.00% (Unspecified)
system.caches.Directory_Controller.DMA_READ         2403      0.00%      0.00% (Unspecified)
system.caches.Directory_Controller.CleanReplacement     10428961      0.00%      0.00% (Unspecified)
system.caches.Directory_Controller.I.Fetch     19089069      0.00%      0.00% (Unspecified)
system.caches.Directory_Controller.I.DMA_READ           29      0.00%      0.00% (Unspecified)
system.caches.Directory_Controller.ID.Memory_Data           29      0.00%      0.00% (Unspecified)
system.caches.Directory_Controller.M.Data      8526662      0.00%      0.00% (Unspecified)
system.caches.Directory_Controller.M.DMA_READ         2374      0.00%      0.00% (Unspecified)
system.caches.Directory_Controller.M.CleanReplacement     10428961      0.00%      0.00% (Unspecified)
system.caches.Directory_Controller.IM.Memory_Data     19089069      0.00%      0.00% (Unspecified)
system.caches.Directory_Controller.MI.Memory_Ack      8526662      0.00%      0.00% (Unspecified)
system.caches.Directory_Controller.M_DRD.Data         2374      0.00%      0.00% (Unspecified)
system.caches.Directory_Controller.M_DRDI.Memory_Ack         2374      0.00%      0.00% (Unspecified)
system.caches.DMA_Controller.ReadRequest |        2403    100.00%    100.00% |           0      0.00%    100.00% (Unspecified)
system.caches.DMA_Controller.ReadRequest::total         2403                       (Unspecified)
system.caches.DMA_Controller.Data        |        2403    100.00%    100.00% |           0      0.00%    100.00% (Unspecified)
system.caches.DMA_Controller.Data::total         2403                       (Unspecified)
system.caches.DMA_Controller.READY.ReadRequest |        2403    100.00%    100.00% |           0      0.00%    100.00% (Unspecified)
system.caches.DMA_Controller.READY.ReadRequest::total         2403                       (Unspecified)
system.caches.DMA_Controller.BUSY_RD.Data |        2403    100.00%    100.00% |           0      0.00%    100.00% (Unspecified)
system.caches.DMA_Controller.BUSY_RD.Data::total         2403                       (Unspecified)
system.caches.L2Cache_Controller.L1_GET_INSTR |       13319      7.26%      7.26% |       29722     16.21%     23.48% |       24715     13.48%     36.96% |        7568      4.13%     41.08% |       26091     14.23%     55.32% |       25119     13.70%     69.02% |       30996     16.91%     85.92% |       25808     14.08%    100.00% (Unspecified)
system.caches.L2Cache_Controller.L1_GET_INSTR::total       183338                       (Unspecified)
system.caches.L2Cache_Controller.L1_GETS |     2228827     12.53%     12.53% |     2226539     12.51%     25.04% |     2223119     12.49%     37.53% |     2218824     12.47%     50.00% |     2221669     12.49%     62.49% |     2218797     12.47%     74.96% |     2233038     12.55%     87.51% |     2222692     12.49%    100.00% (Unspecified)
system.caches.L2Cache_Controller.L1_GETS::total     17793505                       (Unspecified)
system.caches.L2Cache_Controller.L1_GETX |      775597     12.52%     12.52% |      774517     12.50%     25.01% |      773259     12.48%     37.49% |      773867     12.49%     49.98% |      773990     12.49%     62.47% |      776535     12.53%     75.00% |      774520     12.50%     87.50% |      774923     12.50%    100.00% (Unspecified)
system.caches.L2Cache_Controller.L1_GETX::total      6197208                       (Unspecified)
system.caches.L2Cache_Controller.L1_UPGRADE |        3000     16.37%     16.37% |        1635      8.92%     25.29% |          27      0.15%     25.44% |          19      0.10%     25.54% |          64      0.35%     25.89% |          27      0.15%     26.04% |       13508     73.70%     99.74% |          48      0.26%    100.00% (Unspecified)
system.caches.L2Cache_Controller.L1_UPGRADE::total        18328                       (Unspecified)
system.caches.L2Cache_Controller.L1_PUTX |     2987410     12.50%     12.50% |     2988751     12.51%     25.01% |     2985986     12.50%     37.50% |     2985356     12.49%     50.00% |     2987205     12.50%     62.50% |     2988040     12.50%     75.00% |     2986040     12.50%     87.50% |     2987149     12.50%    100.00% (Unspecified)
system.caches.L2Cache_Controller.L1_PUTX::total     23895937                       (Unspecified)
system.caches.L2Cache_Controller.L2_Replacement |     1065188     12.50%     12.50% |     1065303     12.50%     25.00% |     1065286     12.50%     37.50% |     1064946     12.50%     50.00% |     1065453     12.50%     62.50% |     1065399     12.50%     75.00% |     1065417     12.50%     87.50% |     1065282     12.50%    100.00% (Unspecified)
system.caches.L2Cache_Controller.L2_Replacement::total      8522274                       (Unspecified)
system.caches.L2Cache_Controller.L2_Replacement_clean |     1304773     12.51%     12.51% |     1304452     12.50%     25.01% |     1304144     12.50%     37.51% |     1303365     12.49%     50.00% |     1304289     12.50%     62.50% |     1304262     12.50%     75.00% |     1303564     12.49%     87.50% |     1304500     12.50%    100.00% (Unspecified)
system.caches.L2Cache_Controller.L2_Replacement_clean::total     10433349                       (Unspecified)
system.caches.L2Cache_Controller.Mem_Data |     2386644     12.50%     12.50% |     2386436     12.50%     25.00% |     2386111     12.50%     37.50% |     2384992     12.49%     50.00% |     2386422     12.50%     62.50% |     2386341     12.50%     75.00% |     2385661     12.50%     87.50% |     2386462     12.50%    100.00% (Unspecified)
system.caches.L2Cache_Controller.Mem_Data::total     19089069                       (Unspecified)
system.caches.L2Cache_Controller.Mem_Ack |     2370260     12.50%     12.50% |     2370052     12.50%     25.00% |     2369727     12.50%     37.50% |     2368608     12.49%     50.00% |     2370038     12.50%     62.50% |     2369957     12.50%     75.00% |     2369277     12.50%     87.50% |     2370078     12.50%    100.00% (Unspecified)
system.caches.L2Cache_Controller.Mem_Ack::total     18957997                       (Unspecified)
system.caches.L2Cache_Controller.WB_Data |        4410     21.25%     21.25% |        1968      9.48%     30.73% |         420      2.02%     32.76% |         803      3.87%     36.62% |         833      4.01%     40.64% |        1316      6.34%     46.98% |       10003     48.20%     95.18% |        1001      4.82%    100.00% (Unspecified)
system.caches.L2Cache_Controller.WB_Data::total        20754                       (Unspecified)
system.caches.L2Cache_Controller.WB_Data_clean |         395     16.50%     16.50% |         563     23.52%     40.02% |         424     17.71%     57.73% |         171      7.14%     64.87% |         257     10.74%     75.61% |         143      5.97%     81.58% |         177      7.39%     88.97% |         264     11.03%    100.00% (Unspecified)
system.caches.L2Cache_Controller.WB_Data_clean::total         2394                       (Unspecified)
system.caches.L2Cache_Controller.Ack     |        4257     14.44%     14.44% |        3558     12.07%     26.51% |        3719     12.61%     39.12% |        3297     11.18%     50.30% |        3657     12.40%     62.71% |        3887     13.18%     75.89% |        3300     11.19%     87.08% |        3809     12.92%    100.00% (Unspecified)
system.caches.L2Cache_Controller.Ack::total        29484                       (Unspecified)
system.caches.L2Cache_Controller.Ack_all |        6378     14.01%     14.01% |        5955     13.08%     27.10% |        5749     12.63%     39.73% |        5042     11.08%     50.80% |        5735     12.60%     63.40% |        5550     12.19%     75.60% |        5063     11.12%     86.72% |        6045     13.28%    100.00% (Unspecified)
system.caches.L2Cache_Controller.Ack_all::total        45517                       (Unspecified)
system.caches.L2Cache_Controller.Unblock |        3951     23.68%     23.68% |        1914     11.47%     35.15% |         455      2.73%     37.88% |         193      1.16%     39.04% |         338      2.03%     41.06% |         179      1.07%     42.14% |        9333     55.94%     98.08% |         321      1.92%    100.00% (Unspecified)
system.caches.L2Cache_Controller.Unblock::total        16684                       (Unspecified)
system.caches.L2Cache_Controller.Exclusive_Unblock |     2995254     12.51%     12.51% |     2994560     12.51%     25.02% |     2989853     12.49%     37.50% |     2989123     12.48%     49.99% |     2991560     12.49%     62.48% |     2992355     12.50%     74.98% |     2999291     12.53%     87.51% |     2991275     12.49%    100.00% (Unspecified)
system.caches.L2Cache_Controller.Exclusive_Unblock::total     23943271                       (Unspecified)
system.caches.L2Cache_Controller.MEM_Inv |         598     12.59%     12.59% |         594     12.51%     25.11% |         594     12.51%     37.62% |         594     12.51%     50.13% |         592     12.47%     62.59% |         592     12.47%     75.06% |         592     12.47%     87.53% |         592     12.47%    100.00% (Unspecified)
system.caches.L2Cache_Controller.MEM_Inv::total         4748                       (Unspecified)
system.caches.L2Cache_Controller.NP.L1_GET_INSTR |        4877     14.00%     14.00% |        4337     12.45%     26.45% |        4173     11.98%     38.43% |        4040     11.60%     50.03% |        4174     11.98%     62.02% |        4494     12.90%     74.92% |        3865     11.10%     86.02% |        4871     13.98%    100.00% (Unspecified)
system.caches.L2Cache_Controller.NP.L1_GET_INSTR::total        34831                       (Unspecified)
system.caches.L2Cache_Controller.NP.L1_GETS |     1609155     12.50%     12.50% |     1609587     12.50%     25.00% |     1609689     12.50%     37.50% |     1608602     12.49%     50.00% |     1609883     12.50%     62.50% |     1608937     12.50%     75.00% |     1609333     12.50%     87.50% |     1609039     12.50%    100.00% (Unspecified)
system.caches.L2Cache_Controller.NP.L1_GETS::total     12874225                       (Unspecified)
system.caches.L2Cache_Controller.NP.L1_GETX |      772612     12.50%     12.50% |      772512     12.50%     25.00% |      772249     12.50%     37.50% |      772350     12.50%     50.00% |      772365     12.50%     62.49% |      772910     12.51%     75.00% |      772463     12.50%     87.50% |      772552     12.50%    100.00% (Unspecified)
system.caches.L2Cache_Controller.NP.L1_GETX::total      6180013                       (Unspecified)
system.caches.L2Cache_Controller.SS.L1_GET_INSTR |        6800      4.93%      4.93% |       23909     17.35%     22.28% |       19202     13.93%     36.22% |        2293      1.66%     37.88% |       20648     14.98%     52.86% |       19261     13.98%     66.84% |       26008     18.87%     85.71% |       19688     14.29%    100.00% (Unspecified)
system.caches.L2Cache_Controller.SS.L1_GET_INSTR::total       137809                       (Unspecified)
system.caches.L2Cache_Controller.SS.L1_GETS |        7662     20.99%     20.99% |        5890     16.14%     37.13% |        5683     15.57%     52.70% |        3138      8.60%     61.29% |        3602      9.87%     71.16% |        2538      6.95%     78.11% |        2177      5.96%     84.08% |        5812     15.92%    100.00% (Unspecified)
system.caches.L2Cache_Controller.SS.L1_GETS::total        36502                       (Unspecified)
system.caches.L2Cache_Controller.SS.L1_GETX |         561     64.26%     64.26% |           4      0.46%     64.72% |           2      0.23%     64.95% |           2      0.23%     65.18% |           9      1.03%     66.21% |           1      0.11%     66.32% |         293     33.56%     99.89% |           1      0.11%    100.00% (Unspecified)
system.caches.L2Cache_Controller.SS.L1_GETX::total          873                       (Unspecified)
system.caches.L2Cache_Controller.SS.L1_UPGRADE |        2998     21.93%     21.93% |        1635     11.96%     33.88% |          27      0.20%     34.08% |          19      0.14%     34.22% |          64      0.47%     34.69% |          27      0.20%     34.89% |        8855     64.76%     99.65% |          48      0.35%    100.00% (Unspecified)
system.caches.L2Cache_Controller.SS.L1_UPGRADE::total        13673                       (Unspecified)
system.caches.L2Cache_Controller.SS.L2_Replacement |           5      8.20%      8.20% |          13     21.31%     29.51% |           6      9.84%     39.34% |           2      3.28%     42.62% |          10     16.39%     59.02% |           9     14.75%     73.77% |           7     11.48%     85.25% |           9     14.75%    100.00% (Unspecified)
system.caches.L2Cache_Controller.SS.L2_Replacement::total           61                       (Unspecified)
system.caches.L2Cache_Controller.SS.L2_Replacement_clean |        5488     14.55%     14.55% |        4711     12.49%     27.03% |        4749     12.59%     39.62% |        4294     11.38%     51.00% |        4495     11.91%     62.92% |        4733     12.55%     75.46% |        4045     10.72%     86.18% |        5213     13.82%    100.00% (Unspecified)
system.caches.L2Cache_Controller.SS.L2_Replacement_clean::total        37728                       (Unspecified)
system.caches.L2Cache_Controller.M.L1_GETS |      607781     12.51%     12.51% |      608985     12.53%     25.04% |      607077     12.49%     37.53% |      606759     12.49%     50.02% |      607730     12.51%     62.53% |      607000     12.49%     75.02% |      606631     12.48%     87.50% |      607390     12.50%    100.00% (Unspecified)
system.caches.L2Cache_Controller.M.L1_GETS::total      4859353                       (Unspecified)
system.caches.L2Cache_Controller.M.L1_GETX |        2283     14.22%     14.22% |        1976     12.31%     26.54% |        1003      6.25%     32.79% |        1490      9.28%     42.07% |        1608     10.02%     52.09% |        3603     22.45%     74.54% |        1731     10.79%     85.32% |        2356     14.68%    100.00% (Unspecified)
system.caches.L2Cache_Controller.M.L1_GETX::total        16050                       (Unspecified)
system.caches.L2Cache_Controller.M.L2_Replacement |     1064939     12.50%     12.50% |     1065124     12.50%     25.00% |     1065219     12.50%     37.50% |     1064765     12.50%     50.00% |     1065201     12.50%     62.50% |     1064952     12.50%     75.00% |     1065103     12.50%     87.50% |     1064936     12.50%    100.00% (Unspecified)
system.caches.L2Cache_Controller.M.L2_Replacement::total      8520239                       (Unspecified)
system.caches.L2Cache_Controller.M.L2_Replacement_clean |     1298047     12.50%     12.50% |     1298317     12.50%     25.00% |     1298333     12.50%     37.50% |     1297985     12.50%     50.00% |     1298313     12.50%     62.50% |     1298137     12.50%     75.00% |     1298227     12.50%     87.50% |     1298118     12.50%    100.00% (Unspecified)
system.caches.L2Cache_Controller.M.L2_Replacement_clean::total     10385477                       (Unspecified)
system.caches.L2Cache_Controller.M.MEM_Inv |          42     14.00%     14.00% |          39     13.00%     27.00% |          37     12.33%     39.33% |          35     11.67%     51.00% |          37     12.33%     63.33% |          38     12.67%     76.00% |          37     12.33%     88.33% |          35     11.67%    100.00% (Unspecified)
system.caches.L2Cache_Controller.M.MEM_Inv::total          300                       (Unspecified)
system.caches.L2Cache_Controller.MT.L1_GETS |        3951     23.68%     23.68% |        1914     11.47%     35.15% |         455      2.73%     37.88% |         193      1.16%     39.04% |         338      2.03%     41.06% |         179      1.07%     42.14% |        9333     55.94%     98.08% |         321      1.92%    100.00% (Unspecified)
system.caches.L2Cache_Controller.MT.L1_GETS::total        16684                       (Unspecified)
system.caches.L2Cache_Controller.MT.L1_GETX |         137     60.09%     60.09% |          18      7.89%     67.98% |           5      2.19%     70.18% |          15      6.58%     76.75% |           5      2.19%     78.95% |          10      4.39%     83.33% |          25     10.96%     94.30% |          13      5.70%    100.00% (Unspecified)
system.caches.L2Cache_Controller.MT.L1_GETX::total          228                       (Unspecified)
system.caches.L2Cache_Controller.MT.L1_PUTX |     2987410     12.50%     12.50% |     2988751     12.51%     25.01% |     2985986     12.50%     37.50% |     2985356     12.49%     50.00% |     2987205     12.50%     62.50% |     2988040     12.50%     75.00% |     2986040     12.50%     87.50% |     2987149     12.50%    100.00% (Unspecified)
system.caches.L2Cache_Controller.MT.L1_PUTX::total     23895937                       (Unspecified)
system.caches.L2Cache_Controller.MT.L2_Replacement |         244     12.36%     12.36% |         166      8.41%     20.77% |          61      3.09%     23.86% |         179      9.07%     32.93% |         242     12.26%     45.19% |         438     22.19%     67.38% |         307     15.55%     82.93% |         337     17.07%    100.00% (Unspecified)
system.caches.L2Cache_Controller.MT.L2_Replacement::total         1974                       (Unspecified)
system.caches.L2Cache_Controller.MT.L2_Replacement_clean |        1238     12.20%     12.20% |        1424     14.04%     26.24% |        1062     10.47%     36.71% |        1086     10.71%     47.42% |        1481     14.60%     62.02% |        1392     13.72%     75.74% |        1292     12.74%     88.48% |        1169     11.52%    100.00% (Unspecified)
system.caches.L2Cache_Controller.MT.L2_Replacement_clean::total        10144                       (Unspecified)
system.caches.L2Cache_Controller.MT.MEM_Inv |         257     12.39%     12.39% |         258     12.44%     24.83% |         260     12.54%     37.37% |         262     12.63%     50.00% |         259     12.49%     62.49% |         258     12.44%     74.93% |         259     12.49%     87.42% |         261     12.58%    100.00% (Unspecified)
system.caches.L2Cache_Controller.MT.MEM_Inv::total         2074                       (Unspecified)
system.caches.L2Cache_Controller.M_I.L1_GET_INSTR |           1      4.55%      4.55% |           1      4.55%      9.09% |           2      9.09%     18.18% |           4     18.18%     36.36% |           1      4.55%     40.91% |           1      4.55%     45.45% |           7     31.82%     77.27% |           5     22.73%    100.00% (Unspecified)
system.caches.L2Cache_Controller.M_I.L1_GET_INSTR::total           22                       (Unspecified)
system.caches.L2Cache_Controller.M_I.L1_GETS |           2      3.33%      3.33% |           2      3.33%      6.67% |          12     20.00%     26.67% |          17     28.33%     55.00% |          10     16.67%     71.67% |          10     16.67%     88.33% |           2      3.33%     91.67% |           5      8.33%    100.00% (Unspecified)
system.caches.L2Cache_Controller.M_I.L1_GETS::total           60                       (Unspecified)
system.caches.L2Cache_Controller.M_I.L1_GETX |           4      9.52%      9.52% |           5     11.90%     21.43% |           0      0.00%     21.43% |          10     23.81%     45.24% |           3      7.14%     52.38% |          11     26.19%     78.57% |           8     19.05%     97.62% |           1      2.38%    100.00% (Unspecified)
system.caches.L2Cache_Controller.M_I.L1_GETX::total           42                       (Unspecified)
system.caches.L2Cache_Controller.M_I.Mem_Ack |     2370260     12.50%     12.50% |     2370052     12.50%     25.00% |     2369727     12.50%     37.50% |     2368608     12.49%     50.00% |     2370038     12.50%     62.50% |     2369957     12.50%     75.00% |     2369277     12.50%     87.50% |     2370078     12.50%    100.00% (Unspecified)
system.caches.L2Cache_Controller.M_I.Mem_Ack::total     18957997                       (Unspecified)
system.caches.L2Cache_Controller.M_I.MEM_Inv |          42     14.00%     14.00% |          39     13.00%     27.00% |          37     12.33%     39.33% |          35     11.67%     51.00% |          37     12.33%     63.33% |          38     12.67%     76.00% |          37     12.33%     88.33% |          35     11.67%    100.00% (Unspecified)
system.caches.L2Cache_Controller.M_I.MEM_Inv::total          300                       (Unspecified)
system.caches.L2Cache_Controller.MT_I.WB_Data |         259     12.48%     12.48% |         180      8.67%     21.15% |          77      3.71%     24.86% |         195      9.39%     34.25% |         254     12.24%     46.48% |         449     21.63%     68.11% |         314     15.13%     83.24% |         348     16.76%    100.00% (Unspecified)
system.caches.L2Cache_Controller.MT_I.WB_Data::total         2076                       (Unspecified)
system.caches.L2Cache_Controller.MT_I.Ack_all |         242     12.27%     12.27% |         244     12.37%     24.65% |         244     12.37%     37.02% |         246     12.47%     49.49% |         247     12.53%     62.02% |         247     12.53%     74.54% |         252     12.78%     87.32% |         250     12.68%    100.00% (Unspecified)
system.caches.L2Cache_Controller.MT_I.Ack_all::total         1972                       (Unspecified)
system.caches.L2Cache_Controller.MT_I.MEM_Inv |         257     12.39%     12.39% |         258     12.44%     24.83% |         260     12.54%     37.37% |         262     12.63%     50.00% |         259     12.49%     62.49% |         258     12.44%     74.93% |         259     12.49%     87.42% |         261     12.58%    100.00% (Unspecified)
system.caches.L2Cache_Controller.MT_I.MEM_Inv::total         2074                       (Unspecified)
system.caches.L2Cache_Controller.MCT_I.WB_Data |         595     13.56%     13.56% |         437      9.96%     23.52% |         312      7.11%     30.63% |         586     13.35%     43.98% |         498     11.35%     55.33% |         831     18.94%     74.27% |         533     12.15%     86.42% |         596     13.58%    100.00% (Unspecified)
system.caches.L2Cache_Controller.MCT_I.WB_Data::total         4388                       (Unspecified)
system.caches.L2Cache_Controller.MCT_I.Ack_all |         643     11.17%     11.17% |         987     17.15%     28.32% |         750     13.03%     41.35% |         500      8.69%     50.03% |         983     17.08%     67.11% |         561      9.75%     76.86% |         759     13.19%     90.05% |         573      9.95%    100.00% (Unspecified)
system.caches.L2Cache_Controller.MCT_I.Ack_all::total         5756                       (Unspecified)
system.caches.L2Cache_Controller.I_I.L1_GET_INSTR |           1    100.00%    100.00% |           0      0.00%    100.00% |           0      0.00%    100.00% |           0      0.00%    100.00% |           0      0.00%    100.00% |           0      0.00%    100.00% |           0      0.00%    100.00% |           0      0.00%    100.00% (Unspecified)
system.caches.L2Cache_Controller.I_I.L1_GET_INSTR::total            1                       (Unspecified)
system.caches.L2Cache_Controller.I_I.Ack |        4252     14.45%     14.45% |        3545     12.05%     26.50% |        3713     12.62%     39.12% |        3295     11.20%     50.32% |        3647     12.40%     62.71% |        3878     13.18%     75.89% |        3293     11.19%     87.08% |        3800     12.92%    100.00% (Unspecified)
system.caches.L2Cache_Controller.I_I.Ack::total        29423                       (Unspecified)
system.caches.L2Cache_Controller.I_I.Ack_all |        5488     14.55%     14.55% |        4711     12.49%     27.03% |        4749     12.59%     39.62% |        4294     11.38%     51.00% |        4495     11.91%     62.92% |        4733     12.55%     75.46% |        4045     10.72%     86.18% |        5213     13.82%    100.00% (Unspecified)
system.caches.L2Cache_Controller.I_I.Ack_all::total        37728                       (Unspecified)
system.caches.L2Cache_Controller.S_I.Ack |           5      8.20%      8.20% |          13     21.31%     29.51% |           6      9.84%     39.34% |           2      3.28%     42.62% |          10     16.39%     59.02% |           9     14.75%     73.77% |           7     11.48%     85.25% |           9     14.75%    100.00% (Unspecified)
system.caches.L2Cache_Controller.S_I.Ack::total           61                       (Unspecified)
system.caches.L2Cache_Controller.S_I.Ack_all |           5      8.20%      8.20% |          13     21.31%     29.51% |           6      9.84%     39.34% |           2      3.28%     42.62% |          10     16.39%     59.02% |           9     14.75%     73.77% |           7     11.48%     85.25% |           9     14.75%    100.00% (Unspecified)
system.caches.L2Cache_Controller.S_I.Ack_all::total           61                       (Unspecified)
system.caches.L2Cache_Controller.ISS.L1_GETS |         273     23.86%     23.86% |         157     13.72%     37.59% |         199     17.40%     54.98% |         114      9.97%     64.95% |         104      9.09%     74.04% |         133     11.63%     85.66% |          40      3.50%     89.16% |         124     10.84%    100.00% (Unspecified)
system.caches.L2Cache_Controller.ISS.L1_GETS::total         1144                       (Unspecified)
system.caches.L2Cache_Controller.ISS.Mem_Data |     1608882     12.50%     12.50% |     1609430     12.50%     25.00% |     1609490     12.50%     37.50% |     1608488     12.49%     50.00% |     1609779     12.51%     62.50% |     1608804     12.50%     75.00% |     1609293     12.50%     87.50% |     1608915     12.50%    100.00% (Unspecified)
system.caches.L2Cache_Controller.ISS.Mem_Data::total     12873081                       (Unspecified)
system.caches.L2Cache_Controller.IS.L1_GET_INSTR |        1640     15.36%     15.36% |        1475     13.82%     29.18% |        1338     12.53%     41.71% |        1231     11.53%     53.25% |        1268     11.88%     65.12% |        1363     12.77%     77.89% |        1116     10.45%     88.35% |        1244     11.65%    100.00% (Unspecified)
system.caches.L2Cache_Controller.IS.L1_GET_INSTR::total        10675                       (Unspecified)
system.caches.L2Cache_Controller.IS.Mem_Data |        5150     14.32%     14.32% |        4494     12.49%     26.81% |        4372     12.15%     38.96% |        4154     11.55%     50.51% |        4278     11.89%     62.40% |        4627     12.86%     75.26% |        3905     10.85%     86.12% |        4995     13.88%    100.00% (Unspecified)
system.caches.L2Cache_Controller.IS.Mem_Data::total        35975                       (Unspecified)
system.caches.L2Cache_Controller.IM.L1_GETX |           0      0.00%      0.00% |           2    100.00%    100.00% |           0      0.00%    100.00% |           0      0.00%    100.00% |           0      0.00%    100.00% |           0      0.00%    100.00% |           0      0.00%    100.00% |           0      0.00%    100.00% (Unspecified)
system.caches.L2Cache_Controller.IM.L1_GETX::total            2                       (Unspecified)
system.caches.L2Cache_Controller.IM.Mem_Data |      772612     12.50%     12.50% |      772512     12.50%     25.00% |      772249     12.50%     37.50% |      772350     12.50%     50.00% |      772365     12.50%     62.49% |      772910     12.51%     75.00% |      772463     12.50%     87.50% |      772552     12.50%    100.00% (Unspecified)
system.caches.L2Cache_Controller.IM.Mem_Data::total      6180013                       (Unspecified)
system.caches.L2Cache_Controller.SS_MB.L1_GETS |           2      0.04%      0.04% |           0      0.00%      0.04% |           0      0.00%      0.04% |           0      0.00%      0.04% |           0      0.00%      0.04% |           0      0.00%      0.04% |        5521     99.96%    100.00% |           0      0.00%    100.00% (Unspecified)
system.caches.L2Cache_Controller.SS_MB.L1_GETS::total         5523                       (Unspecified)
system.caches.L2Cache_Controller.SS_MB.L1_UPGRADE |           2    100.00%    100.00% |           0      0.00%    100.00% |           0      0.00%    100.00% |           0      0.00%    100.00% |           0      0.00%    100.00% |           0      0.00%    100.00% |           0      0.00%    100.00% |           0      0.00%    100.00% (Unspecified)
system.caches.L2Cache_Controller.SS_MB.L1_UPGRADE::total            2                       (Unspecified)
system.caches.L2Cache_Controller.SS_MB.Exclusive_Unblock |        3559     24.47%     24.47% |        1639     11.27%     35.73% |          29      0.20%     35.93% |          21      0.14%     36.08% |          73      0.50%     36.58% |          28      0.19%     36.77% |        9148     62.89%     99.66% |          49      0.34%    100.00% (Unspecified)
system.caches.L2Cache_Controller.SS_MB.Exclusive_Unblock::total        14546                       (Unspecified)
system.caches.L2Cache_Controller.MT_MB.L1_GETS |           1      7.14%      7.14% |           4     28.57%     35.71% |           4     28.57%     64.29% |           1      7.14%     71.43% |           2     14.29%     85.71% |           0      0.00%     85.71% |           1      7.14%     92.86% |           1      7.14%    100.00% (Unspecified)
system.caches.L2Cache_Controller.MT_MB.L1_GETS::total           14                       (Unspecified)
system.caches.L2Cache_Controller.MT_MB.Exclusive_Unblock |     2991695     12.50%     12.50% |     2992921     12.51%     25.01% |     2989824     12.49%     37.50% |     2989102     12.49%     50.00% |     2991487     12.50%     62.50% |     2992327     12.51%     75.00% |     2990143     12.50%     87.50% |     2991226     12.50%    100.00% (Unspecified)
system.caches.L2Cache_Controller.MT_MB.Exclusive_Unblock::total     23928725                       (Unspecified)
system.caches.L2Cache_Controller.MT_IIB.WB_Data |        3556     24.88%     24.88% |        1351      9.45%     34.34% |          31      0.22%     34.56% |          22      0.15%     34.71% |          81      0.57%     35.28% |          36      0.25%     35.53% |        9156     64.07%     99.60% |          57      0.40%    100.00% (Unspecified)
system.caches.L2Cache_Controller.MT_IIB.WB_Data::total        14290                       (Unspecified)
[...]
system.timingCpu0.exec_context.thread_0.statExecutedInstType::SimdSha1Hash2            0      0.00%     70.27% # Class of executed instruction. (Count)
system.timingCpu0.exec_context.thread_0.statExecutedInstType::SimdSha256Hash            0      0.00%     70.27% # Class of executed instruction. (Count)
system.timingCpu0.exec_context.thread_0.statExecutedInstType::SimdSha256Hash2            0      0.00%     70.27% # Class of executed instruction. (Count)
system.timingCpu0.exec_context.thread_0.statExecutedInstType::SimdShaSigma2            0      0.00%     70.27% # Class of executed instruction. (Count)
system.timingCpu0.exec_context.thread_0.statExecutedInstType::SimdShaSigma3            0      0.00%     70.27% # Class of executed instruction. (Count)
system.timingCpu0.exec_context.thread_0.statExecutedInstType::SimdPredAlu            0      0.00%     70.27% # Class of executed instruction. (Count)
system.timingCpu0.exec_context.thread_0.statExecutedInstType::MemRead      2246427      0.24%     70.51% # Class of executed instruction. (Count)
system.timingCpu0.exec_context.thread_0.statExecutedInstType::MemWrite      1137222      0.12%     70.64% # Class of executed instruction. (Count)
system.timingCpu0.exec_context.thread_0.statExecutedInstType::FloatMemRead    187685607     20.37%     91.01% # Class of executed instruction. (Count)
system.timingCpu0.exec_context.thread_0.statExecutedInstType::FloatMemWrite     82788617      8.99%    100.00% # Class of executed instruction. (Count)
system.timingCpu0.exec_context.thread_0.statExecutedInstType::IprAccess            0      0.00%    100.00% # Class of executed instruction. (Count)
system.timingCpu0.exec_context.thread_0.statExecutedInstType::InstPrefetch            0      0.00%    100.00% # Class of executed instruction. (Count)
system.timingCpu0.exec_context.thread_0.statExecutedInstType::total    921156954                       # Class of executed instruction. (Count)
system.timingCpu0.mmu.dtb.rdAccesses        189986128                       # TLB accesses on read requests (Count)
system.timingCpu0.mmu.dtb.wrAccesses         83934611                       # TLB accesses on write requests (Count)
system.timingCpu0.mmu.dtb.rdMisses              54106                       # TLB misses on read requests (Count)
system.timingCpu0.mmu.dtb.wrMisses               8818                       # TLB misses on write requests (Count)
system.timingCpu0.mmu.dtb.walker.power_state.pwrStateResidencyTicks::UNDEFINED 21230867485500                       # Cumulative time (in ticks) in various power states (Tick)
system.timingCpu0.mmu.itb.rdAccesses                0                       # TLB accesses on read requests (Count)
system.timingCpu0.mmu.itb.wrAccesses        889148488                       # TLB accesses on write requests (Count)
system.timingCpu0.mmu.itb.rdMisses                  0                       # TLB misses on read requests (Count)
system.timingCpu0.mmu.itb.wrMisses               2716                       # TLB misses on write requests (Count)
system.timingCpu0.mmu.itb.walker.power_state.pwrStateResidencyTicks::UNDEFINED 21230867485500                       # Cumulative time (in ticks) in various power states (Tick)
system.timingCpu0.power_state.numTransitions           24                       # Number of power state transitions (Count)
system.timingCpu0.power_state.ticksClkGated::samples           12                       # Distribution of time spent in the clock gated state (Tick)
system.timingCpu0.power_state.ticksClkGated::mean 871758604.166667                       # Distribution of time spent in the clock gated state (Tick)
system.timingCpu0.power_state.ticksClkGated::stdev 291660443.482334                       # Distribution of time spent in the clock gated state (Tick)
system.timingCpu0.power_state.ticksClkGated::1000-5e+10           12    100.00%    100.00% # Distribution of time spent in the clock gated state (Tick)
system.timingCpu0.power_state.ticksClkGated::min_value    174201250                       # Distribution of time spent in the clock gated state (Tick)
system.timingCpu0.power_state.ticksClkGated::max_value    997708250                       # Distribution of time spent in the clock gated state (Tick)
system.timingCpu0.power_state.ticksClkGated::total           12                       # Distribution of time spent in the clock gated state (Tick)
system.timingCpu0.power_state.pwrStateResidencyTicks::ON 1068580583500                       # Cumulative time (in ticks) in various power states (Tick)
system.timingCpu0.power_state.pwrStateResidencyTicks::CLK_GATED  10461103250                       # Cumulative time (in ticks) in various power states (Tick)
system.timingCpu0.power_state.pwrStateResidencyTicks::OFF 20151825798750                       # Cumulative time (in ticks) in various power states (Tick)
system.timingCpu0.thread_0.numInsts                 0                       # Number of Instructions committed (Count)
system.timingCpu0.thread_0.numOps                   0                       # Number of Ops committed (Count)
system.timingCpu0.thread_0.numMemRefs               0                       # Number of Memory References (Count)
system.timingCpu1.numCycles                7999999999                       # Number of cpu cycles simulated (Cycle)
system.timingCpu1.numWorkItemsStarted               0                       # Number of work items this cpu started (Count)
system.timingCpu1.numWorkItemsCompleted             0                       # Number of work items this cpu completed (Count)
system.timingCpu1.exec_context.thread_0.numInsts    572724407                       # Number of instructions committed (Count)
system.timingCpu1.exec_context.thread_0.numOps    916746397                       # Number of ops (including micro ops) committed (Count)
system.timingCpu1.exec_context.thread_0.numIntAluAccesses    337701499                       # Number of integer alu accesses (Count)
system.timingCpu1.exec_context.thread_0.numFpAluAccesses    849759719                       # Number of float alu accesses (Count)
system.timingCpu1.exec_context.thread_0.numVecAluAccesses            0                       # Number of vector alu accesses (Count)
system.timingCpu1.exec_context.thread_0.numCallsReturns       314560                       # Number of times a function call or return occured (Count)
system.timingCpu1.exec_context.thread_0.numCondCtrlInsts      6592559                       # Number of instructions that are conditional controls (Count)
system.timingCpu1.exec_context.thread_0.numIntInsts    337701499                       # Number of integer instructions (Count)
system.timingCpu1.exec_context.thread_0.numFpInsts    849759719                       # Number of float instructions (Count)
system.timingCpu1.exec_context.thread_0.numVecInsts            0                       # Number of vector instructions (Count)
system.timingCpu1.exec_context.thread_0.numIntRegReads    340738288                       # Number of times the integer registers were read (Count)
system.timingCpu1.exec_context.thread_0.numIntRegWrites     52462229                       # Number of times the integer registers were written (Count)
system.timingCpu1.exec_context.thread_0.numFpRegReads   1356965156                       # Number of times the floating registers were read (Count)
system.timingCpu1.exec_context.thread_0.numFpRegWrites    766623560                       # Number of times the floating registers were written (Count)
system.timingCpu1.exec_context.thread_0.numVecRegReads            0                       # Number of times the vector registers were read (Count)
system.timingCpu1.exec_context.thread_0.numVecRegWrites            0                       # Number of times the vector registers were written (Count)
system.timingCpu1.exec_context.thread_0.numVecPredRegReads            0                       # Number of times the predicate registers were read (Count)
system.timingCpu1.exec_context.thread_0.numVecPredRegWrites            0                       # Number of times the predicate registers were written (Count)
system.timingCpu1.exec_context.thread_0.numCCRegReads     34641409                       # Number of times the CC registers were read (Count)
system.timingCpu1.exec_context.thread_0.numCCRegWrites     47636383                       # Number of times the CC registers were written (Count)
system.timingCpu1.exec_context.thread_0.numMiscRegReads    287388113                       # Number of times the Misc registers were read (Count)
system.timingCpu1.exec_context.thread_0.numMiscRegWrites        68904                       # Number of times the Misc registers were written (Count)
system.timingCpu1.exec_context.thread_0.numMemRefs    273148286                       # Number of memory refs (Count)
system.timingCpu1.exec_context.thread_0.numLoadInsts    189299539                       # Number of load instructions (Count)
system.timingCpu1.exec_context.thread_0.numStoreInsts     83848747                       # Number of store instructions (Count)
system.timingCpu1.exec_context.thread_0.numIdleCycles            0                       # Number of idle cycles (Cycle)
system.timingCpu1.exec_context.thread_0.numBusyCycles   7999999999                       # Number of busy cycles (Cycle)
system.timingCpu1.exec_context.thread_0.notIdleFraction            1                       # Percentage of non-idle cycles (Ratio)
system.timingCpu1.exec_context.thread_0.idleFraction            0                       # Percentage of idle cycles (Ratio)
system.timingCpu1.exec_context.thread_0.numBranches      7087519                       # Number of branches fetched (Count)
system.timingCpu1.exec_context.thread_0.statExecutedInstType::No_OpClass        50005      0.01%      0.01% # Class of executed instruction. (Count)
system.timingCpu1.exec_context.thread_0.statExecutedInstType::IntAlu    265757272     28.99%     28.99% # Class of executed instruction. (Count)
system.timingCpu1.exec_context.thread_0.statExecutedInstType::IntMult        45909      0.01%     29.00% # Class of executed instruction. (Count)
system.timingCpu1.exec_context.thread_0.statExecutedInstType::IntDiv        87421      0.01%     29.01% # Class of executed instruction. (Count)
system.timingCpu1.exec_context.thread_0.statExecutedInstType::FloatAdd     86404982      9.43%     38.43% # Class of executed instruction. (Count)
system.timingCpu1.exec_context.thread_0.statExecutedInstType::FloatCmp            0      0.00%     38.43% # Class of executed instruction. (Count)
system.timingCpu1.exec_context.thread_0.statExecutedInstType::FloatCvt           80      0.00%     38.43% # Class of executed instruction. (Count)
system.timingCpu1.exec_context.thread_0.statExecutedInstType::FloatMult            0      0.00%     38.43% # Class of executed instruction. (Count)
system.timingCpu1.exec_context.thread_0.statExecutedInstType::FloatMultAcc            0      0.00%     38.43% # Class of executed instruction. (Count)
system.timingCpu1.exec_context.thread_0.statExecutedInstType::FloatDiv            0      0.00%     38.43% # Class of executed instruction. (Count)
system.timingCpu1.exec_context.thread_0.statExecutedInstType::FloatMisc            0      0.00%     38.43% # Class of executed instruction. (Count)
system.timingCpu1.exec_context.thread_0.statExecutedInstType::FloatSqrt            0      0.00%     38.43% # Class of executed instruction. (Count)
system.timingCpu1.exec_context.thread_0.statExecutedInstType::SimdAdd            0      0.00%     38.43% # Class of executed instruction. (Count)
system.timingCpu1.exec_context.thread_0.statExecutedInstType::SimdAddAcc            0      0.00%     38.43% # Class of executed instruction. (Count)
system.timingCpu1.exec_context.thread_0.statExecutedInstType::SimdAlu            0      0.00%     38.43% # Class of executed instruction. (Count)
system.timingCpu1.exec_context.thread_0.statExecutedInstType::SimdCmp            0      0.00%     38.43% # Class of executed instruction. (Count)
system.timingCpu1.exec_context.thread_0.statExecutedInstType::SimdCvt            0      0.00%     38.43% # Class of executed instruction. (Count)
system.timingCpu1.exec_context.thread_0.statExecutedInstType::SimdMisc            0      0.00%     38.43% # Class of executed instruction. (Count)
system.timingCpu1.exec_context.thread_0.statExecutedInstType::SimdMult            0      0.00%     38.43% # Class of executed instruction. (Count)
system.timingCpu1.exec_context.thread_0.statExecutedInstType::SimdMultAcc            0      0.00%     38.43% # Class of executed instruction. (Count)
system.timingCpu1.exec_context.thread_0.statExecutedInstType::SimdShift            0      0.00%     38.43% # Class of executed instruction. (Count)
system.timingCpu1.exec_context.thread_0.statExecutedInstType::SimdShiftAcc            0      0.00%     38.43% # Class of executed instruction. (Count)
system.timingCpu1.exec_context.thread_0.statExecutedInstType::SimdDiv            0      0.00%     38.43% # Class of executed instruction. (Count)
system.timingCpu1.exec_context.thread_0.statExecutedInstType::SimdSqrt            0      0.00%     38.43% # Class of executed instruction. (Count)
system.timingCpu1.exec_context.thread_0.statExecutedInstType::SimdFloatAdd    161807761     17.65%     56.08% # Class of executed instruction. (Count)
system.timingCpu1.exec_context.thread_0.statExecutedInstType::SimdFloatAlu            0      0.00%     56.08% # Class of executed instruction. (Count)
system.timingCpu1.exec_context.thread_0.statExecutedInstType::SimdFloatCmp            0      0.00%     56.08% # Class of executed instruction. (Count)
system.timingCpu1.exec_context.thread_0.statExecutedInstType::SimdFloatCvt            0      0.00%     56.08% # Class of executed instruction. (Count)
system.timingCpu1.exec_context.thread_0.statExecutedInstType::SimdFloatDiv      2012971      0.22%     56.30% # Class of executed instruction. (Count)
system.timingCpu1.exec_context.thread_0.statExecutedInstType::SimdFloatMisc            0      0.00%     56.30% # Class of executed instruction. (Count)
system.timingCpu1.exec_context.thread_0.statExecutedInstType::SimdFloatMult    125418739     13.68%     69.99% # Class of executed instruction. (Count)
system.timingCpu1.exec_context.thread_0.statExecutedInstType::SimdFloatMultAcc            0      0.00%     69.99% # Class of executed instruction. (Count)
system.timingCpu1.exec_context.thread_0.statExecutedInstType::SimdFloatSqrt      2012971      0.22%     70.20% # Class of executed instruction. (Count)
system.timingCpu1.exec_context.thread_0.statExecutedInstType::SimdReduceAdd            0      0.00%     70.20% # Class of executed instruction. (Count)
system.timingCpu1.exec_context.thread_0.statExecutedInstType::SimdReduceAlu            0      0.00%     70.20% # Class of executed instruction. (Count)
system.timingCpu1.exec_context.thread_0.statExecutedInstType::SimdReduceCmp            0      0.00%     70.20% # Class of executed instruction. (Count)
system.timingCpu1.exec_context.thread_0.statExecutedInstType::SimdFloatReduceAdd            0      0.00%     70.20% # Class of executed instruction. (Count)
system.timingCpu1.exec_context.thread_0.statExecutedInstType::SimdFloatReduceCmp            0      0.00%     70.20% # Class of executed instruction. (Count)
system.timingCpu1.exec_context.thread_0.statExecutedInstType::SimdAes            0      0.00%     70.20% # Class of executed instruction. (Count)
system.timingCpu1.exec_context.thread_0.statExecutedInstType::SimdAesMix            0      0.00%     70.20% # Class of executed instruction. (Count)
system.timingCpu1.exec_context.thread_0.statExecutedInstType::SimdSha1Hash            0      0.00%     70.20% # Class of executed instruction. (Count)
system.timingCpu1.exec_context.thread_0.statExecutedInstType::SimdSha1Hash2            0      0.00%     70.20% # Class of executed instruction. (Count)
system.timingCpu1.exec_context.thread_0.statExecutedInstType::SimdSha256Hash            0      0.00%     70.20% # Class of executed instruction. (Count)
system.timingCpu1.exec_context.thread_0.statExecutedInstType::SimdSha256Hash2            0      0.00%     70.20% # Class of executed instruction. (Count)
system.timingCpu1.exec_context.thread_0.statExecutedInstType::SimdShaSigma2            0      0.00%     70.20% # Class of executed instruction. (Count)
system.timingCpu1.exec_context.thread_0.statExecutedInstType::SimdShaSigma3            0      0.00%     70.20% # Class of executed instruction. (Count)
system.timingCpu1.exec_context.thread_0.statExecutedInstType::SimdPredAlu            0      0.00%     70.20% # Class of executed instruction. (Count)
system.timingCpu1.exec_context.thread_0.statExecutedInstType::MemRead      1375724      0.15%     70.35% # Class of executed instruction. (Count)
system.timingCpu1.exec_context.thread_0.statExecutedInstType::MemWrite       712668      0.08%     70.43% # Class of executed instruction. (Count)
system.timingCpu1.exec_context.thread_0.statExecutedInstType::FloatMemRead    187923815     20.50%     90.93% # Class of executed instruction. (Count)
system.timingCpu1.exec_context.thread_0.statExecutedInstType::FloatMemWrite     83136079      9.07%    100.00% # Class of executed instruction. (Count)
system.timingCpu1.exec_context.thread_0.statExecutedInstType::IprAccess            0      0.00%    100.00% # Class of executed instruction. (Count)
system.timingCpu1.exec_context.thread_0.statExecutedInstType::InstPrefetch            0      0.00%    100.00% # Class of executed instruction. (Count)
system.timingCpu1.exec_context.thread_0.statExecutedInstType::total    916746397                       # Class of executed instruction. (Count)
system.timingCpu1.mmu.dtb.rdAccesses        189350345                       # TLB accesses on read requests (Count)
system.timingCpu1.mmu.dtb.wrAccesses         83857622                       # TLB accesses on write requests (Count)
system.timingCpu1.mmu.dtb.rdMisses              51057                       # TLB misses on read requests (Count)
system.timingCpu1.mmu.dtb.wrMisses               8975                       # TLB misses on write requests (Count)
system.timingCpu1.mmu.dtb.walker.power_state.pwrStateResidencyTicks::UNDEFINED 21230867485500                       # Cumulative time (in ticks) in various power states (Tick)
system.timingCpu1.mmu.itb.rdAccesses                0                       # TLB accesses on read requests (Count)
system.timingCpu1.mmu.itb.wrAccesses        887885449                       # TLB accesses on write requests (Count)
system.timingCpu1.mmu.itb.rdMisses                  0                       # TLB misses on read requests (Count)
system.timingCpu1.mmu.itb.wrMisses               2736                       # TLB misses on write requests (Count)
system.timingCpu1.mmu.itb.walker.power_state.pwrStateResidencyTicks::UNDEFINED 21230867485500                       # Cumulative time (in ticks) in various power states (Tick)
system.timingCpu1.power_state.pwrStateResidencyTicks::OFF 21230867485500                       # Cumulative time (in ticks) in various power states (Tick)
system.timingCpu1.thread_0.numInsts                 0                       # Number of Instructions committed (Count)
system.timingCpu1.thread_0.numOps                   0                       # Number of Ops committed (Count)
system.timingCpu1.thread_0.numMemRefs               0                       # Number of Memory References (Count)
system.workload.inst.arm                            0                       # number of arm instructions executed (Count)
system.workload.inst.quiesce                        0                       # number of quiesce instructions executed (Count)

---------- End Simulation Statistics   ----------
