
---------- Begin Simulation Statistics ----------
simSeconds                                          2                       # Number of seconds simulated (Second)
simTicks                                 2000000000000                       # Number of ticks simulated (Tick)
finalTick                                164799322366500                       # Number of ticks from beginning of simulation (restored from checkpoints and never reset) (Tick)
simFreq                                  1000000000000                       # The number of ticks per simulated second ((Tick/Second))
hostSeconds                                  10191.67                       # Real time elapsed on the host (Second)
hostTickRate                                196238675                       # The number of ticks simulated per host second (ticks/s) ((Tick/Second))
hostMemory                                    8049640                       # Number of bytes of host memory used (Byte)
simInsts                                  39816745391                       # Number of instructions simulated (Count)
simOps                                    41229462234                       # Number of ops (including micro ops) simulated (Count)
hostInstRate                                  3906793                       # Simulator instruction rate (inst/s) ((Count/Second))
hostOpRate                                    4045407                       # Simulator op (including micro ops) rate (op/s) ((Count/Second))
system.atomicCpu0.numCycles                         0                       # Number of cpu cycles simulated (Cycle)
system.atomicCpu0.numWorkItemsStarted               0                       # Number of work items this cpu started (Count)
system.atomicCpu0.numWorkItemsCompleted             0                       # Number of work items this cpu completed (Count)
system.atomicCpu0.exec_context.thread_0.numInsts            0                       # Number of instructions committed (Count)
system.atomicCpu0.exec_context.thread_0.numOps            0                       # Number of ops (including micro ops) committed (Count)
system.atomicCpu0.exec_context.thread_0.numIntAluAccesses            0                       # Number of integer alu accesses (Count)
system.atomicCpu0.exec_context.thread_0.numFpAluAccesses            0                       # Number of float alu accesses (Count)
system.atomicCpu0.exec_context.thread_0.numVecAluAccesses            0                       # Number of vector alu accesses (Count)
system.atomicCpu0.exec_context.thread_0.numCallsReturns            0                       # Number of times a function call or return occured (Count)
system.atomicCpu0.exec_context.thread_0.numCondCtrlInsts            0                       # Number of instructions that are conditional controls (Count)
system.atomicCpu0.exec_context.thread_0.numIntInsts            0                       # Number of integer instructions (Count)
system.atomicCpu0.exec_context.thread_0.numFpInsts            0                       # Number of float instructions (Count)
system.atomicCpu0.exec_context.thread_0.numVecInsts            0                       # Number of vector instructions (Count)
system.atomicCpu0.exec_context.thread_0.numIntRegReads            0                       # Number of times the integer registers were read (Count)
system.atomicCpu0.exec_context.thread_0.numIntRegWrites            0                       # Number of times the integer registers were written (Count)
system.atomicCpu0.exec_context.thread_0.numFpRegReads            0                       # Number of times the floating registers were read (Count)
system.atomicCpu0.exec_context.thread_0.numFpRegWrites            0                       # Number of times the floating registers were written (Count)
system.atomicCpu0.exec_context.thread_0.numVecRegReads            0                       # Number of times the vector registers were read (Count)
system.atomicCpu0.exec_context.thread_0.numVecRegWrites            0                       # Number of times the vector registers were written (Count)
system.atomicCpu0.exec_context.thread_0.numVecPredRegReads            0                       # Number of times the predicate registers were read (Count)
system.atomicCpu0.exec_context.thread_0.numVecPredRegWrites            0                       # Number of times the predicate registers were written (Count)
system.atomicCpu0.exec_context.thread_0.numMiscRegReads            0                       # Number of times the Misc registers were read (Count)
system.atomicCpu0.exec_context.thread_0.numMiscRegWrites            0                       # Number of times the Misc registers were written (Count)
system.atomicCpu0.exec_context.thread_0.numMemRefs            0                       # Number of memory refs (Count)
system.atomicCpu0.exec_context.thread_0.numLoadInsts            0                       # Number of load instructions (Count)
system.atomicCpu0.exec_context.thread_0.numStoreInsts            0                       # Number of store instructions (Count)
system.atomicCpu0.exec_context.thread_0.numIdleCycles            0                       # Number of idle cycles (Cycle)
system.atomicCpu0.exec_context.thread_0.numBusyCycles            0                       # Number of busy cycles (Cycle)
system.atomicCpu0.exec_context.thread_0.notIdleFraction            0                       # Percentage of non-idle cycles (Ratio)
system.atomicCpu0.exec_context.thread_0.idleFraction            1                       # Percentage of idle cycles (Ratio)
system.atomicCpu0.exec_context.thread_0.statExecutedInstType::No_OpClass            0                       # Class of executed instruction. (Count)
system.atomicCpu0.exec_context.thread_0.statExecutedInstType::IntAlu            0                       # Class of executed instruction. (Count)
system.atomicCpu0.exec_context.thread_0.statExecutedInstType::IntMult            0                       # Class of executed instruction. (Count)
system.atomicCpu0.exec_context.thread_0.statExecutedInstType::IntDiv            0                       # Class of executed instruction. (Count)
system.atomicCpu0.exec_context.thread_0.statExecutedInstType::FloatAdd            0                       # Class of executed instruction. (Count)
system.atomicCpu0.exec_context.thread_0.statExecutedInstType::FloatCmp            0                       # Class of executed instruction. (Count)
system.atomicCpu0.exec_context.thread_0.statExecutedInstType::FloatCvt            0                       # Class of executed instruction. (Count)
system.atomicCpu0.exec_context.thread_0.statExecutedInstType::FloatMult            0                       # Class of executed instruction. (Count)
system.atomicCpu0.exec_context.thread_0.statExecutedInstType::FloatMultAcc            0                       # Class of executed instruction. (Count)
system.atomicCpu0.exec_context.thread_0.statExecutedInstType::FloatDiv            0                       # Class of executed instruction. (Count)
system.atomicCpu0.exec_context.thread_0.statExecutedInstType::FloatMisc            0                       # Class of executed instruction. (Count)
system.atomicCpu0.exec_context.thread_0.statExecutedInstType::FloatSqrt            0                       # Class of executed instruction. (Count)
system.atomicCpu0.exec_context.thread_0.statExecutedInstType::SimdAdd            0                       # Class of executed instruction. (Count)
system.atomicCpu0.exec_context.thread_0.statExecutedInstType::SimdAddAcc            0                       # Class of executed instruction. (Count)
system.atomicCpu0.exec_context.thread_0.statExecutedInstType::SimdAlu            0                       # Class of executed instruction. (Count)
system.atomicCpu0.exec_context.thread_0.statExecutedInstType::SimdCmp            0                       # Class of executed instruction. (Count)
system.atomicCpu0.exec_context.thread_0.statExecutedInstType::SimdCvt            0                       # Class of executed instruction. (Count)
system.atomicCpu0.exec_context.thread_0.statExecutedInstType::SimdMisc            0                       # Class of executed instruction. (Count)
system.atomicCpu0.exec_context.thread_0.statExecutedInstType::SimdMult            0                       # Class of executed instruction. (Count)
system.atomicCpu0.exec_context.thread_0.statExecutedInstType::SimdMultAcc            0                       # Class of executed instruction. (Count)
system.atomicCpu0.exec_context.thread_0.statExecutedInstType::SimdShift            0                       # Class of executed instruction. (Count)
system.atomicCpu0.exec_context.thread_0.statExecutedInstType::SimdShiftAcc            0                       # Class of executed instruction. (Count)
system.atomicCpu0.exec_context.thread_0.statExecutedInstType::SimdDiv            0                       # Class of executed instruction. (Count)
system.atomicCpu0.exec_context.thread_0.statExecutedInstType::SimdSqrt            0                       # Class of executed instruction. (Count)
system.atomicCpu0.exec_context.thread_0.statExecutedInstType::SimdFloatAdd            0                       # Class of executed instruction. (Count)
system.atomicCpu0.exec_context.thread_0.statExecutedInstType::SimdFloatAlu            0                       # Class of executed instruction. (Count)
system.atomicCpu0.exec_context.thread_0.statExecutedInstType::SimdFloatCmp            0                       # Class of executed instruction. (Count)
system.atomicCpu0.exec_context.thread_0.statExecutedInstType::SimdFloatCvt            0                       # Class of executed instruction. (Count)
system.atomicCpu0.exec_context.thread_0.statExecutedInstType::SimdFloatDiv            0                       # Class of executed instruction. (Count)
system.atomicCpu0.exec_context.thread_0.statExecutedInstType::SimdFloatMisc            0                       # Class of executed instruction. (Count)
system.atomicCpu0.exec_context.thread_0.statExecutedInstType::SimdFloatMult            0                       # Class of executed instruction. (Count)
system.atomicCpu0.exec_context.thread_0.statExecutedInstType::SimdFloatMultAcc            0                       # Class of executed instruction. (Count)
system.atomicCpu0.exec_context.thread_0.statExecutedInstType::SimdFloatSqrt            0                       # Class of executed instruction. (Count)
system.atomicCpu0.exec_context.thread_0.statExecutedInstType::SimdReduceAdd            0                       # Class of executed instruction. (Count)
system.atomicCpu0.exec_context.thread_0.statExecutedInstType::SimdReduceAlu            0                       # Class of executed instruction. (Count)
system.atomicCpu0.exec_context.thread_0.statExecutedInstType::SimdReduceCmp            0                       # Class of executed instruction. (Count)
system.atomicCpu0.exec_context.thread_0.statExecutedInstType::SimdFloatReduceAdd            0                       # Class of executed instruction. (Count)
system.atomicCpu0.exec_context.thread_0.statExecutedInstType::SimdFloatReduceCmp            0                       # Class of executed instruction. (Count)
system.atomicCpu0.exec_context.thread_0.statExecutedInstType::SimdAes            0                       # Class of executed instruction. (Count)
system.atomicCpu0.exec_context.thread_0.statExecutedInstType::SimdAesMix            0                       # Class of executed instruction. (Count)
system.atomicCpu0.exec_context.thread_0.statExecutedInstType::SimdSha1Hash            0                       # Class of executed instruction. (Count)
system.atomicCpu0.exec_context.thread_0.statExecutedInstType::SimdSha1Hash2            0                       # Class of executed instruction. (Count)
system.atomicCpu0.exec_context.thread_0.statExecutedInstType::SimdSha256Hash            0                       # Class of executed instruction. (Count)
system.atomicCpu0.exec_context.thread_0.statExecutedInstType::SimdSha256Hash2            0                       # Class of executed instruction. (Count)
system.atomicCpu0.exec_context.thread_0.statExecutedInstType::SimdShaSigma2            0                       # Class of executed instruction. (Count)
system.atomicCpu0.exec_context.thread_0.statExecutedInstType::SimdShaSigma3            0                       # Class of executed instruction. (Count)
system.atomicCpu0.exec_context.thread_0.statExecutedInstType::SimdPredAlu            0                       # Class of executed instruction. (Count)
system.atomicCpu0.exec_context.thread_0.statExecutedInstType::MemRead            0                       # Class of executed instruction. (Count)
system.atomicCpu0.exec_context.thread_0.statExecutedInstType::MemWrite            0                       # Class of executed instruction. (Count)
system.atomicCpu0.exec_context.thread_0.statExecutedInstType::FloatMemRead            0                       # Class of executed instruction. (Count)
system.atomicCpu0.exec_context.thread_0.statExecutedInstType::FloatMemWrite            0                       # Class of executed instruction. (Count)
system.atomicCpu0.exec_context.thread_0.statExecutedInstType::IprAccess            0                       # Class of executed instruction. (Count)
system.atomicCpu0.exec_context.thread_0.statExecutedInstType::InstPrefetch            0                       # Class of executed instruction. (Count)
system.atomicCpu0.exec_context.thread_0.statExecutedInstType::total            0                       # Class of executed instruction. (Count)
system.atomicCpu0.mmu.dtb.rdAccesses                0                       # TLB accesses on read requests (Count)
system.atomicCpu0.mmu.dtb.wrAccesses                0                       # TLB accesses on write requests (Count)
system.atomicCpu0.mmu.dtb.rdMisses                  0                       # TLB misses on read requests (Count)
system.atomicCpu0.mmu.dtb.wrMisses                  0                       # TLB misses on write requests (Count)
system.atomicCpu0.mmu.dtb.walker.power_state.pwrStateResidencyTicks::UNDEFINED 164799322366500                       # Cumulative time (in ticks) in various power states (Tick)
system.atomicCpu0.mmu.itb.rdAccesses                0                       # TLB accesses on read requests (Count)
system.atomicCpu0.mmu.itb.wrAccesses                0                       # TLB accesses on write requests (Count)
system.atomicCpu0.mmu.itb.rdMisses                  0                       # TLB misses on read requests (Count)
system.atomicCpu0.mmu.itb.wrMisses                  0                       # TLB misses on write requests (Count)
system.atomicCpu0.mmu.itb.walker.power_state.pwrStateResidencyTicks::UNDEFINED 164799322366500                       # Cumulative time (in ticks) in various power states (Tick)
system.atomicCpu0.power_state.pwrStateResidencyTicks::OFF 164799322366500                       # Cumulative time (in ticks) in various power states (Tick)
system.atomicCpu0.thread_0.numInsts                 0                       # Number of Instructions committed (Count)
system.atomicCpu0.thread_0.numOps                   0                       # Number of Ops committed (Count)
system.atomicCpu0.thread_0.numMemRefs               0                       # Number of Memory References (Count)
system.atomicCpu1.numCycles                         0                       # Number of cpu cycles simulated (Cycle)
system.atomicCpu1.numWorkItemsStarted               0                       # Number of work items this cpu started (Count)
system.atomicCpu1.numWorkItemsCompleted             0                       # Number of work items this cpu completed (Count)
system.atomicCpu1.exec_context.thread_0.numInsts            0                       # Number of instructions committed (Count)
system.atomicCpu1.exec_context.thread_0.numOps            0                       # Number of ops (including micro ops) committed (Count)
system.atomicCpu1.exec_context.thread_0.numIntAluAccesses            0                       # Number of integer alu accesses (Count)
system.atomicCpu1.exec_context.thread_0.numFpAluAccesses            0                       # Number of float alu accesses (Count)
system.atomicCpu1.exec_context.thread_0.numVecAluAccesses            0                       # Number of vector alu accesses (Count)
system.atomicCpu1.exec_context.thread_0.numCallsReturns            0                       # Number of times a function call or return occured (Count)
system.atomicCpu1.exec_context.thread_0.numCondCtrlInsts            0                       # Number of instructions that are conditional controls (Count)
system.atomicCpu1.exec_context.thread_0.numIntInsts            0                       # Number of integer instructions (Count)
system.atomicCpu1.exec_context.thread_0.numFpInsts            0                       # Number of float instructions (Count)
system.atomicCpu1.exec_context.thread_0.numVecInsts            0                       # Number of vector instructions (Count)
system.atomicCpu1.exec_context.thread_0.numIntRegReads            0                       # Number of times the integer registers were read (Count)
system.atomicCpu1.exec_context.thread_0.numIntRegWrites            0                       # Number of times the integer registers were written (Count)
system.atomicCpu1.exec_context.thread_0.numFpRegReads            0                       # Number of times the floating registers were read (Count)
system.atomicCpu1.exec_context.thread_0.numFpRegWrites            0                       # Number of times the floating registers were written (Count)
system.atomicCpu1.exec_context.thread_0.numVecRegReads            0                       # Number of times the vector registers were read (Count)
system.atomicCpu1.exec_context.thread_0.numVecRegWrites            0                       # Number of times the vector registers were written (Count)
system.atomicCpu1.exec_context.thread_0.numVecPredRegReads            0                       # Number of times the predicate registers were read (Count)
system.atomicCpu1.exec_context.thread_0.numVecPredRegWrites            0                       # Number of times the predicate registers were written (Count)
system.atomicCpu1.exec_context.thread_0.numMiscRegReads            0                       # Number of times the Misc registers were read (Count)
system.atomicCpu1.exec_context.thread_0.numMiscRegWrites            0                       # Number of times the Misc registers were written (Count)
system.atomicCpu1.exec_context.thread_0.numMemRefs            0                       # Number of memory refs (Count)
system.atomicCpu1.exec_context.thread_0.numLoadInsts            0                       # Number of load instructions (Count)
system.atomicCpu1.exec_context.thread_0.numStoreInsts            0                       # Number of store instructions (Count)
system.atomicCpu1.exec_context.thread_0.numIdleCycles            0                       # Number of idle cycles (Cycle)
system.atomicCpu1.exec_context.thread_0.numBusyCycles            0                       # Number of busy cycles (Cycle)
system.atomicCpu1.exec_context.thread_0.notIdleFraction            0                       # Percentage of non-idle cycles (Ratio)
system.atomicCpu1.exec_context.thread_0.idleFraction            1                       # Percentage of idle cycles (Ratio)
system.atomicCpu1.exec_context.thread_0.statExecutedInstType::No_OpClass            0                       # Class of executed instruction. (Count)
system.atomicCpu1.exec_context.thread_0.statExecutedInstType::IntAlu            0                       # Class of executed instruction. (Count)
system.atomicCpu1.exec_context.thread_0.statExecutedInstType::IntMult            0                       # Class of executed instruction. (Count)
system.atomicCpu1.exec_context.thread_0.statExecutedInstType::IntDiv            0                       # Class of executed instruction. (Count)
system.atomicCpu1.exec_context.thread_0.statExecutedInstType::FloatAdd            0                       # Class of executed instruction. (Count)
system.atomicCpu1.exec_context.thread_0.statExecutedInstType::FloatCmp            0                       # Class of executed instruction. (Count)
system.atomicCpu1.exec_context.thread_0.statExecutedInstType::FloatCvt            0                       # Class of executed instruction. (Count)
system.atomicCpu1.exec_context.thread_0.statExecutedInstType::FloatMult            0                       # Class of executed instruction. (Count)
system.atomicCpu1.exec_context.thread_0.statExecutedInstType::FloatMultAcc            0                       # Class of executed instruction. (Count)
system.atomicCpu1.exec_context.thread_0.statExecutedInstType::FloatDiv            0                       # Class of executed instruction. (Count)
system.atomicCpu1.exec_context.thread_0.statExecutedInstType::FloatMisc            0                       # Class of executed instruction. (Count)
system.atomicCpu1.exec_context.thread_0.statExecutedInstType::FloatSqrt            0                       # Class of executed instruction. (Count)
system.atomicCpu1.exec_context.thread_0.statExecutedInstType::SimdAdd            0                       # Class of executed instruction. (Count)
system.atomicCpu1.exec_context.thread_0.statExecutedInstType::SimdAddAcc            0                       # Class of executed instruction. (Count)
system.atomicCpu1.exec_context.thread_0.statExecutedInstType::SimdAlu            0                       # Class of executed instruction. (Count)
system.atomicCpu1.exec_context.thread_0.statExecutedInstType::SimdCmp            0                       # Class of executed instruction. (Count)
system.atomicCpu1.exec_context.thread_0.statExecutedInstType::SimdCvt            0                       # Class of executed instruction. (Count)
system.atomicCpu1.exec_context.thread_0.statExecutedInstType::SimdMisc            0                       # Class of executed instruction. (Count)
system.atomicCpu1.exec_context.thread_0.statExecutedInstType::SimdMult            0                       # Class of executed instruction. (Count)
system.atomicCpu1.exec_context.thread_0.statExecutedInstType::SimdMultAcc            0                       # Class of executed instruction. (Count)
system.atomicCpu1.exec_context.thread_0.statExecutedInstType::SimdShift            0                       # Class of executed instruction. (Count)
system.atomicCpu1.exec_context.thread_0.statExecutedInstType::SimdShiftAcc            0                       # Class of executed instruction. (Count)
system.atomicCpu1.exec_context.thread_0.statExecutedInstType::SimdDiv            0                       # Class of executed instruction. (Count)
system.atomicCpu1.exec_context.thread_0.statExecutedInstType::SimdSqrt            0                       # Class of executed instruction. (Count)
system.atomicCpu1.exec_context.thread_0.statExecutedInstType::SimdFloatAdd            0                       # Class of executed instruction. (Count)
system.atomicCpu1.exec_context.thread_0.statExecutedInstType::SimdFloatAlu            0                       # Class of executed instruction. (Count)
system.atomicCpu1.exec_context.thread_0.statExecutedInstType::SimdFloatCmp            0                       # Class of executed instruction. (Count)
system.atomicCpu1.exec_context.thread_0.statExecutedInstType::SimdFloatCvt            0                       # Class of executed instruction. (Count)
system.atomicCpu1.exec_context.thread_0.statExecutedInstType::SimdFloatDiv            0                       # Class of executed instruction. (Count)
system.atomicCpu1.exec_context.thread_0.statExecutedInstType::SimdFloatMisc            0                       # Class of executed instruction. (Count)
system.atomicCpu1.exec_context.thread_0.statExecutedInstType::SimdFloatMult            0                       # Class of executed instruction. (Count)
system.atomicCpu1.exec_context.thread_0.statExecutedInstType::SimdFloatMultAcc            0                       # Class of executed instruction. (Count)
system.atomicCpu1.exec_context.thread_0.statExecutedInstType::SimdFloatSqrt            0                       # Class of executed instruction. (Count)
system.atomicCpu1.exec_context.thread_0.statExecutedInstType::SimdReduceAdd            0                       # Class of executed instruction. (Count)
system.atomicCpu1.exec_context.thread_0.statExecutedInstType::SimdReduceAlu            0                       # Class of executed instruction. (Count)
system.atomicCpu1.exec_context.thread_0.statExecutedInstType::SimdReduceCmp            0                       # Class of executed instruction. (Count)
system.atomicCpu1.exec_context.thread_0.statExecutedInstType::SimdFloatReduceAdd            0                       # Class of executed instruction. (Count)
system.atomicCpu1.exec_context.thread_0.statExecutedInstType::SimdFloatReduceCmp            0                       # Class of executed instruction. (Count)
system.atomicCpu1.exec_context.thread_0.statExecutedInstType::SimdAes            0                       # Class of executed instruction. (Count)
system.atomicCpu1.exec_context.thread_0.statExecutedInstType::SimdAesMix            0                       # Class of executed instruction. (Count)
system.atomicCpu1.exec_context.thread_0.statExecutedInstType::SimdSha1Hash            0                       # Class of executed instruction. (Count)
system.atomicCpu1.exec_context.thread_0.statExecutedInstType::SimdSha1Hash2            0                       # Class of executed instruction. (Count)
system.atomicCpu1.exec_context.thread_0.statExecutedInstType::SimdSha256Hash            0                       # Class of executed instruction. (Count)
system.atomicCpu1.exec_context.thread_0.statExecutedInstType::SimdSha256Hash2            0                       # Class of executed instruction. (Count)
system.atomicCpu1.exec_context.thread_0.statExecutedInstType::SimdShaSigma2            0                       # Class of executed instruction. (Count)
system.atomicCpu1.exec_context.thread_0.statExecutedInstType::SimdShaSigma3            0                       # Class of executed instruction. (Count)
system.atomicCpu1.exec_context.thread_0.statExecutedInstType::SimdPredAlu            0                       # Class of executed instruction. (Count)
system.atomicCpu1.exec_context.thread_0.statExecutedInstType::MemRead            0                       # Class of executed instruction. (Count)
system.atomicCpu1.exec_context.thread_0.statExecutedInstType::MemWrite            0                       # Class of executed instruction. (Count)
system.atomicCpu1.exec_context.thread_0.statExecutedInstType::FloatMemRead            0                       # Class of executed instruction. (Count)
system.atomicCpu1.exec_context.thread_0.statExecutedInstType::FloatMemWrite            0                       # Class of executed instruction. (Count)
system.atomicCpu1.exec_context.thread_0.statExecutedInstType::IprAccess            0                       # Class of executed instruction. (Count)
system.atomicCpu1.exec_context.thread_0.statExecutedInstType::InstPrefetch            0                       # Class of executed instruction. (Count)
system.atomicCpu1.exec_context.thread_0.statExecutedInstType::total            0                       # Class of executed instruction. (Count)
system.atomicCpu1.mmu.dtb.rdAccesses                0                       # TLB accesses on read requests (Count)
system.atomicCpu1.mmu.dtb.wrAccesses                0                       # TLB accesses on write requests (Count)
system.atomicCpu1.mmu.dtb.rdMisses                  0                       # TLB misses on read requests (Count)
system.atomicCpu1.mmu.dtb.wrMisses                  0                       # TLB misses on write requests (Count)
system.atomicCpu1.mmu.dtb.walker.power_state.pwrStateResidencyTicks::UNDEFINED 164799322366500                       # Cumulative time (in ticks) in various power states (Tick)
system.atomicCpu1.mmu.itb.rdAccesses                0                       # TLB accesses on read requests (Count)
system.atomicCpu1.mmu.itb.wrAccesses                0                       # TLB accesses on write requests (Count)
system.atomicCpu1.mmu.itb.rdMisses                  0                       # TLB misses on read requests (Count)
system.atomicCpu1.mmu.itb.wrMisses                  0                       # TLB misses on write requests (Count)
system.atomicCpu1.mmu.itb.walker.power_state.pwrStateResidencyTicks::UNDEFINED 164799322366500                       # Cumulative time (in ticks) in various power states (Tick)
system.atomicCpu1.power_state.pwrStateResidencyTicks::OFF 164799322366500                       # Cumulative time (in ticks) in various power states (Tick)
system.atomicCpu1.thread_0.numInsts                 0                       # Number of Instructions committed (Count)
system.atomicCpu1.thread_0.numOps                   0                       # Number of Ops committed (Count)
system.atomicCpu1.thread_0.numMemRefs               0                       # Number of Memory References (Count)
system.caches.delayHistogram::bucket_size           32                       # delay histogram for all message (Unspecified)
system.caches.delayHistogram::max_bucket          319                       # delay histogram for all message (Unspecified)
system.caches.delayHistogram::samples       573706612                       # delay histogram for all message (Unspecified)
system.caches.delayHistogram::mean           0.136046                       # delay histogram for all message (Unspecified)
system.caches.delayHistogram::stdev          1.031992                       # delay histogram for all message (Unspecified)
system.caches.delayHistogram             |   573706597    100.00%    100.00% |           2      0.00%    100.00% |          11      0.00%    100.00% |           0      0.00%    100.00% |           0      0.00%    100.00% |           0      0.00%    100.00% |           1      0.00%    100.00% |           0      0.00%    100.00% |           0      0.00%    100.00% |           1      0.00%    100.00% # delay histogram for all message (Unspecified)
system.caches.delayHistogram::total         573706612                       # delay histogram for all message (Unspecified)
system.caches.m_outstandReqHistSeqr::bucket_size            1                       (Unspecified)
system.caches.m_outstandReqHistSeqr::max_bucket            9                       (Unspecified)
system.caches.m_outstandReqHistSeqr::samples   2933929500                       (Unspecified)
system.caches.m_outstandReqHistSeqr::mean     1.005370                       (Unspecified)
system.caches.m_outstandReqHistSeqr::gmean     1.003729                       (Unspecified)
system.caches.m_outstandReqHistSeqr::stdev     0.073083                       (Unspecified)
system.caches.m_outstandReqHistSeqr      |           0      0.00%      0.00% |  2918174562     99.46%     99.46% |    15754938      0.54%    100.00% |           0      0.00%    100.00% |           0      0.00%    100.00% |           0      0.00%    100.00% |           0      0.00%    100.00% |           0      0.00%    100.00% |           0      0.00%    100.00% |           0      0.00%    100.00% (Unspecified)
system.caches.m_outstandReqHistSeqr::total   2933929500                       (Unspecified)
system.caches.m_latencyHistSeqr::bucket_size          512                       (Unspecified)
system.caches.m_latencyHistSeqr::max_bucket         5119                       (Unspecified)
system.caches.m_latencyHistSeqr::samples   2933929498                       (Unspecified)
system.caches.m_latencyHistSeqr::mean        4.465170                       (Unspecified)
system.caches.m_latencyHistSeqr::gmean       1.218342                       (Unspecified)
system.caches.m_latencyHistSeqr::stdev      36.639313                       (Unspecified)
system.caches.m_latencyHistSeqr          |  2931466690     99.92%     99.92% |     1956885      0.07%     99.98% |      247536      0.01%     99.99% |      250597      0.01%    100.00% |        7700      0.00%    100.00% |          89      0.00%    100.00% |           1      0.00%    100.00% |           0      0.00%    100.00% |           0      0.00%    100.00% |           0      0.00%    100.00% (Unspecified)
system.caches.m_latencyHistSeqr::total     2933929498                       (Unspecified)
system.caches.m_hitLatencyHistSeqr::bucket_size            1                       (Unspecified)
system.caches.m_hitLatencyHistSeqr::max_bucket            9                       (Unspecified)
system.caches.m_hitLatencyHistSeqr::samples   2737203897                       (Unspecified)
system.caches.m_hitLatencyHistSeqr::mean     1.000000                       (Unspecified)
system.caches.m_hitLatencyHistSeqr::gmean     1.000000                       (Unspecified)
system.caches.m_hitLatencyHistSeqr::stdev     0.000033                       (Unspecified)
system.caches.m_hitLatencyHistSeqr       |           0      0.00%      0.00% |  2737203894    100.00%    100.00% |           3      0.00%    100.00% |           0      0.00%    100.00% |           0      0.00%    100.00% |           0      0.00%    100.00% |           0      0.00%    100.00% |           0      0.00%    100.00% |           0      0.00%    100.00% |           0      0.00%    100.00% (Unspecified)
system.caches.m_hitLatencyHistSeqr::total   2737203897                       (Unspecified)
system.caches.m_missLatencyHistSeqr::bucket_size          512                       (Unspecified)
system.caches.m_missLatencyHistSeqr::max_bucket         5119                       (Unspecified)
system.caches.m_missLatencyHistSeqr::samples    196725601                       (Unspecified)
system.caches.m_missLatencyHistSeqr::mean    52.678908                       (Unspecified)
system.caches.m_missLatencyHistSeqr::gmean    19.017302                       (Unspecified)
system.caches.m_missLatencyHistSeqr::stdev   132.398111                       (Unspecified)
system.caches.m_missLatencyHistSeqr      |   194262793     98.75%     98.75% |     1956885      0.99%     99.74% |      247536      0.13%     99.87% |      250597      0.13%    100.00% |        7700      0.00%    100.00% |          89      0.00%    100.00% |           1      0.00%    100.00% |           0      0.00%    100.00% |           0      0.00%    100.00% |           0      0.00%    100.00% (Unspecified)
system.caches.m_missLatencyHistSeqr::total    196725601                       (Unspecified)
system.caches.delayVCHist.vnet_0::bucket_size           32                       # delay histogram for vnet_0 (Unspecified)
system.caches.delayVCHist.vnet_0::max_bucket          319                       # delay histogram for vnet_0 (Unspecified)
system.caches.delayVCHist.vnet_0::samples    282427628                       # delay histogram for vnet_0 (Unspecified)
system.caches.delayVCHist.vnet_0::mean       0.039972                       # delay histogram for vnet_0 (Unspecified)
system.caches.delayVCHist.vnet_0::stdev      0.556516                       # delay histogram for vnet_0 (Unspecified)
system.caches.delayVCHist.vnet_0         |   282427613    100.00%    100.00% |           2      0.00%    100.00% |          11      0.00%    100.00% |           0      0.00%    100.00% |           0      0.00%    100.00% |           0      0.00%    100.00% |           1      0.00%    100.00% |           0      0.00%    100.00% |           0      0.00%    100.00% |           1      0.00%    100.00% # delay histogram for vnet_0 (Unspecified)
system.caches.delayVCHist.vnet_0::total     282427628                       # delay histogram for vnet_0 (Unspecified)
system.caches.delayVCHist.vnet_1::bucket_size            2                       # delay histogram for vnet_1 (Unspecified)
system.caches.delayVCHist.vnet_1::max_bucket           19                       # delay histogram for vnet_1 (Unspecified)
system.caches.delayVCHist.vnet_1::samples    286632849                       # delay histogram for vnet_1 (Unspecified)
system.caches.delayVCHist.vnet_1::mean       0.232906                       # delay histogram for vnet_1 (Unspecified)
system.caches.delayVCHist.vnet_1::stdev      1.344506                       # delay histogram for vnet_1 (Unspecified)
system.caches.delayVCHist.vnet_1         |   278270293     97.08%     97.08% |       13673      0.00%     97.09% |        9909      0.00%     97.09% |       18617      0.01%     97.10% |     8311829      2.90%    100.00% |        8528      0.00%    100.00% |           0      0.00%    100.00% |           0      0.00%    100.00% |           0      0.00%    100.00% |           0      0.00%    100.00% # delay histogram for vnet_1 (Unspecified)
system.caches.delayVCHist.vnet_1::total     286632849                       # delay histogram for vnet_1 (Unspecified)
system.caches.delayVCHist.vnet_2::bucket_size            1                       # delay histogram for vnet_2 (Unspecified)
system.caches.delayVCHist.vnet_2::max_bucket            9                       # delay histogram for vnet_2 (Unspecified)
system.caches.delayVCHist.vnet_2::samples      4646135                       # delay histogram for vnet_2 (Unspecified)
system.caches.delayVCHist.vnet_2::mean       0.000602                       # delay histogram for vnet_2 (Unspecified)
system.caches.delayVCHist.vnet_2::stdev      0.034725                       # delay histogram for vnet_2 (Unspecified)
system.caches.delayVCHist.vnet_2         |     4644737     99.97%     99.97% |           0      0.00%     99.97% |        1397      0.03%    100.00% |           0      0.00%    100.00% |           1      0.00%    100.00% |           0      0.00%    100.00% |           0      0.00%    100.00% |           0      0.00%    100.00% |           0      0.00%    100.00% |           0      0.00%    100.00% # delay histogram for vnet_2 (Unspecified)
system.caches.delayVCHist.vnet_2::total       4646135                       # delay histogram for vnet_2 (Unspecified)
system.caches.L1Cache_Controller.Load    |   411418527     50.16%     50.16% |   408739236     49.84%    100.00% (Unspecified)
system.caches.L1Cache_Controller.Load::total    820157763                       (Unspecified)
system.caches.L1Cache_Controller.Ifetch  |  1057449765     50.51%     50.51% |  1036161251     49.49%    100.00% (Unspecified)
system.caches.L1Cache_Controller.Ifetch::total   2093611016                       (Unspecified)
system.caches.L1Cache_Controller.Store   |    10783677     53.49%     53.49% |     9377043     46.51%    100.00% (Unspecified)
system.caches.L1Cache_Controller.Store::total     20160720                       (Unspecified)
system.caches.L1Cache_Controller.Inv     |     1482818     49.96%     49.96% |     1485234     50.04%    100.00% (Unspecified)
system.caches.L1Cache_Controller.Inv::total      2968052                       (Unspecified)
system.caches.L1Cache_Controller.L1_Replacement |    98276122     50.04%     50.04% |    98099885     49.96%    100.00% (Unspecified)
system.caches.L1Cache_Controller.L1_Replacement::total    196376007                       (Unspecified)
system.caches.L1Cache_Controller.Fwd_GETX |       41883     49.79%     49.79% |       42233     50.21%    100.00% (Unspecified)
system.caches.L1Cache_Controller.Fwd_GETX::total        84116                       (Unspecified)
system.caches.L1Cache_Controller.Fwd_GETS |      801961     50.31%     50.31% |      792006     49.69%    100.00% (Unspecified)
system.caches.L1Cache_Controller.Fwd_GETS::total      1593967                       (Unspecified)
system.caches.L1Cache_Controller.Data    |       64126     51.13%     51.13% |       61291     48.87%    100.00% (Unspecified)
system.caches.L1Cache_Controller.Data::total       125417                       (Unspecified)
system.caches.L1Cache_Controller.Data_Exclusive |    21043426     50.06%     50.06% |    20989873     49.94%    100.00% (Unspecified)
system.caches.L1Cache_Controller.Data_Exclusive::total     42033299                       (Unspecified)
system.caches.L1Cache_Controller.DataS_fromL1 |      792006     49.69%     49.69% |      801961     50.31%    100.00% (Unspecified)
system.caches.L1Cache_Controller.DataS_fromL1::total      1593967                       (Unspecified)
system.caches.L1Cache_Controller.Data_all_Acks |    76492236     50.04%     50.04% |    76364491     49.96%    100.00% (Unspecified)
system.caches.L1Cache_Controller.Data_all_Acks::total    152856727                       (Unspecified)
system.caches.L1Cache_Controller.Ack     |       62714     53.97%     53.97% |       53477     46.03%    100.00% (Unspecified)
system.caches.L1Cache_Controller.Ack::total       116191                       (Unspecified)
system.caches.L1Cache_Controller.Ack_all |      126840     52.50%     52.50% |      114768     47.50%    100.00% (Unspecified)
system.caches.L1Cache_Controller.Ack_all::total       241608                       (Unspecified)
system.caches.L1Cache_Controller.WB_Ack  |    20681207     50.18%     50.18% |    20531460     49.82%    100.00% (Unspecified)
system.caches.L1Cache_Controller.WB_Ack::total     41212667                       (Unspecified)
system.caches.L1Cache_Controller.NP.Load |    97810955     50.01%     50.01% |    97775807     49.99%    100.00% (Unspecified)
system.caches.L1Cache_Controller.NP.Load::total    195586762                       (Unspecified)
system.caches.L1Cache_Controller.NP.Ifetch |       93008     65.60%     65.60% |       48783     34.40%    100.00% (Unspecified)
system.caches.L1Cache_Controller.NP.Ifetch::total       141791                       (Unspecified)
system.caches.L1Cache_Controller.NP.Store |      380863     57.28%     57.28% |      283999     42.72%    100.00% (Unspecified)
system.caches.L1Cache_Controller.NP.Store::total       664862                       (Unspecified)
system.caches.L1Cache_Controller.NP.Inv  |     1370616     50.02%     50.02% |     1369361     49.98%    100.00% (Unspecified)
system.caches.L1Cache_Controller.NP.Inv::total      2739977                       (Unspecified)
system.caches.L1Cache_Controller.I.Load  |       20660     41.25%     41.25% |       29420     58.75%    100.00% (Unspecified)
system.caches.L1Cache_Controller.I.Load::total        50080                       (Unspecified)
system.caches.L1Cache_Controller.I.Ifetch |       46072     54.28%     54.28% |       38804     45.72%    100.00% (Unspecified)
system.caches.L1Cache_Controller.I.Ifetch::total        84876                       (Unspecified)
system.caches.L1Cache_Controller.I.Store |       39495     50.02%     50.02% |       39468     49.98%    100.00% (Unspecified)
system.caches.L1Cache_Controller.I.Store::total        78963                       (Unspecified)
system.caches.L1Cache_Controller.I.L1_Replacement |       46792     48.99%     48.99% |       48720     51.01%    100.00% (Unspecified)
system.caches.L1Cache_Controller.I.L1_Replacement::total        95512                       (Unspecified)
system.caches.L1Cache_Controller.S.Load  |   169744894     49.90%     49.90% |   170457504     50.10%    100.00% (Unspecified)
system.caches.L1Cache_Controller.S.Load::total    340202398                       (Unspecified)
system.caches.L1Cache_Controller.S.Ifetch |  1057310685     50.51%     50.51% |  1036073664     49.49%    100.00% (Unspecified)
system.caches.L1Cache_Controller.S.Ifetch::total   2093384349                       (Unspecified)
system.caches.L1Cache_Controller.S.Store |       63456     53.65%     53.65% |       54812     46.35%    100.00% (Unspecified)
system.caches.L1Cache_Controller.S.Store::total       118268                       (Unspecified)
system.caches.L1Cache_Controller.S.Inv   |      110625     49.37%     49.37% |      113464     50.63%    100.00% (Unspecified)
system.caches.L1Cache_Controller.S.Inv::total       224089                       (Unspecified)
system.caches.L1Cache_Controller.S.L1_Replacement |    77548123     50.01%     50.01% |    77519705     49.99%    100.00% (Unspecified)
system.caches.L1Cache_Controller.S.L1_Replacement::total    155067828                       (Unspecified)
system.caches.L1Cache_Controller.E.Load  |   137835498     50.46%     50.46% |   135318794     49.54%    100.00% (Unspecified)
system.caches.L1Cache_Controller.E.Load::total    273154292                       (Unspecified)
system.caches.L1Cache_Controller.E.Store |      294458     51.02%     51.02% |      282645     48.98%    100.00% (Unspecified)
system.caches.L1Cache_Controller.E.Store::total       577103                       (Unspecified)
system.caches.L1Cache_Controller.E.Inv   |         481     41.11%     41.11% |         689     58.89%    100.00% (Unspecified)
system.caches.L1Cache_Controller.E.Inv::total         1170                       (Unspecified)
system.caches.L1Cache_Controller.E.L1_Replacement |    20011796     50.06%     50.06% |    19966234     49.94%    100.00% (Unspecified)
system.caches.L1Cache_Controller.E.L1_Replacement::total     39978030                       (Unspecified)
system.caches.L1Cache_Controller.E.Fwd_GETX |          40      4.00%      4.00% |         960     96.00%    100.00% (Unspecified)
system.caches.L1Cache_Controller.E.Fwd_GETX::total         1000                       (Unspecified)
system.caches.L1Cache_Controller.E.Fwd_GETS |      735313     49.91%     49.91% |      737964     50.09%    100.00% (Unspecified)
system.caches.L1Cache_Controller.E.Fwd_GETS::total      1473277                       (Unspecified)
system.caches.L1Cache_Controller.M.Load  |     6006520     53.80%     53.80% |     5157711     46.20%    100.00% (Unspecified)
system.caches.L1Cache_Controller.M.Load::total     11164231                       (Unspecified)
system.caches.L1Cache_Controller.M.Store |    10005405     53.44%     53.44% |     8716119     46.56%    100.00% (Unspecified)
system.caches.L1Cache_Controller.M.Store::total     18721524                       (Unspecified)
system.caches.L1Cache_Controller.M.Inv   |         354     48.63%     48.63% |         374     51.37%    100.00% (Unspecified)
system.caches.L1Cache_Controller.M.Inv::total          728                       (Unspecified)
system.caches.L1Cache_Controller.M.L1_Replacement |      669411     54.22%     54.22% |      565226     45.78%    100.00% (Unspecified)
system.caches.L1Cache_Controller.M.L1_Replacement::total      1234637                       (Unspecified)
system.caches.L1Cache_Controller.M.Fwd_GETX |       41843     50.34%     50.34% |       41273     49.66%    100.00% (Unspecified)
system.caches.L1Cache_Controller.M.Fwd_GETX::total        83116                       (Unspecified)
system.caches.L1Cache_Controller.M.Fwd_GETS |       66636     55.22%     55.22% |       54028     44.78%    100.00% (Unspecified)
system.caches.L1Cache_Controller.M.Fwd_GETS::total       120664                       (Unspecified)
system.caches.L1Cache_Controller.IS.Inv  |           0      0.00%      0.00% |          11    100.00%    100.00% (Unspecified)
system.caches.L1Cache_Controller.IS.Inv::total           11                       (Unspecified)
system.caches.L1Cache_Controller.IS.Data_Exclusive |    21043426     50.06%     50.06% |    20989873     49.94%    100.00% (Unspecified)
system.caches.L1Cache_Controller.IS.Data_Exclusive::total     42033299                       (Unspecified)
system.caches.L1Cache_Controller.IS.DataS_fromL1 |      792006     49.69%     49.69% |      801950     50.31%    100.00% (Unspecified)
system.caches.L1Cache_Controller.IS.DataS_fromL1::total      1593956                       (Unspecified)
system.caches.L1Cache_Controller.IS.Data_all_Acks |    76135262     50.01%     50.01% |    76100980     49.99%    100.00% (Unspecified)
system.caches.L1Cache_Controller.IS.Data_all_Acks::total    152236242                       (Unspecified)
system.caches.L1Cache_Controller.IM.Data |       64126     51.13%     51.13% |       61291     48.87%    100.00% (Unspecified)
system.caches.L1Cache_Controller.IM.Data::total       125417                       (Unspecified)
system.caches.L1Cache_Controller.IM.Data_all_Acks |      356974     57.53%     57.53% |      263511     42.47%    100.00% (Unspecified)
system.caches.L1Cache_Controller.IM.Data_all_Acks::total       620485                       (Unspecified)
system.caches.L1Cache_Controller.SM.Inv  |         742     35.72%     35.72% |        1335     64.28%    100.00% (Unspecified)
system.caches.L1Cache_Controller.SM.Inv::total         2077                       (Unspecified)
system.caches.L1Cache_Controller.SM.Ack  |       62714     53.97%     53.97% |       53477     46.03%    100.00% (Unspecified)
system.caches.L1Cache_Controller.SM.Ack::total       116191                       (Unspecified)
system.caches.L1Cache_Controller.SM.Ack_all |      126840     52.50%     52.50% |      114768     47.50%    100.00% (Unspecified)
system.caches.L1Cache_Controller.SM.Ack_all::total       241608                       (Unspecified)
system.caches.L1Cache_Controller.IS_I.DataS_fromL1 |           0      0.00%      0.00% |          11    100.00%    100.00% (Unspecified)
system.caches.L1Cache_Controller.IS_I.DataS_fromL1::total           11                       (Unspecified)
system.caches.L1Cache_Controller.M_I.Fwd_GETS |          12     46.15%     46.15% |          14     53.85%    100.00% (Unspecified)
system.caches.L1Cache_Controller.M_I.Fwd_GETS::total           26                       (Unspecified)
system.caches.L1Cache_Controller.M_I.WB_Ack |    20681195     50.18%     50.18% |    20531446     49.82%    100.00% (Unspecified)
system.caches.L1Cache_Controller.M_I.WB_Ack::total     41212641                       (Unspecified)
system.caches.L1Cache_Controller.SINK_WB_ACK.WB_Ack |          12     46.15%     46.15% |          14     53.85%    100.00% (Unspecified)
system.caches.L1Cache_Controller.SINK_WB_ACK.WB_Ack::total           26                       (Unspecified)
system.caches.Directory_Controller.Fetch     22131817      0.00%      0.00% (Unspecified)
system.caches.Directory_Controller.Data       1038614      0.00%      0.00% (Unspecified)
system.caches.Directory_Controller.Memory_Data     22131880      0.00%      0.00% (Unspecified)
system.caches.Directory_Controller.Memory_Ack      1038614      0.00%      0.00% (Unspecified)
system.caches.Directory_Controller.DMA_READ           65      0.00%      0.00% (Unspecified)
system.caches.Directory_Controller.CleanReplacement     20962131      0.00%      0.00% (Unspecified)
system.caches.Directory_Controller.I.Fetch     22131817      0.00%      0.00% (Unspecified)
system.caches.Directory_Controller.I.DMA_READ           64      0.00%      0.00% (Unspecified)
system.caches.Directory_Controller.ID.Memory_Data           64      0.00%      0.00% (Unspecified)
system.caches.Directory_Controller.M.Data      1038613      0.00%      0.00% (Unspecified)
system.caches.Directory_Controller.M.DMA_READ            1      0.00%      0.00% (Unspecified)
system.caches.Directory_Controller.M.CleanReplacement     20962131      0.00%      0.00% (Unspecified)
system.caches.Directory_Controller.IM.Memory_Data     22131816      0.00%      0.00% (Unspecified)
system.caches.Directory_Controller.MI.Memory_Ack      1038613      0.00%      0.00% (Unspecified)
system.caches.Directory_Controller.M_DRD.Data            1      0.00%      0.00% (Unspecified)
system.caches.Directory_Controller.M_DRDI.Memory_Ack            1      0.00%      0.00% (Unspecified)
system.caches.DMA_Controller.ReadRequest |          65    100.00%    100.00% |           0      0.00%    100.00% (Unspecified)
system.caches.DMA_Controller.ReadRequest::total           65                       (Unspecified)
system.caches.DMA_Controller.Data        |          65    100.00%    100.00% |           0      0.00%    100.00% (Unspecified)
system.caches.DMA_Controller.Data::total           65                       (Unspecified)
system.caches.DMA_Controller.READY.ReadRequest |          65    100.00%    100.00% |           0      0.00%    100.00% (Unspecified)
system.caches.DMA_Controller.READY.ReadRequest::total           65                       (Unspecified)
system.caches.DMA_Controller.BUSY_RD.Data |          65    100.00%    100.00% |           0      0.00%    100.00% (Unspecified)
system.caches.DMA_Controller.BUSY_RD.Data::total           65                       (Unspecified)
system.caches.L2Cache_Controller.L1_GET_INSTR |       17107      7.54%      7.54% |       31338     13.82%     21.36% |       27293     12.03%     33.40% |       14403      6.35%     39.75% |       22506      9.92%     49.67% |       35103     15.48%     65.15% |       41248     18.19%     83.34% |       37789     16.66%    100.00% (Unspecified)
system.caches.L2Cache_Controller.L1_GET_INSTR::total       226787                       (Unspecified)
system.caches.L2Cache_Controller.L1_GETS |    24502524     12.52%     12.52% |    24380871     12.46%     24.99% |    23893693     12.21%     37.20% |    24315200     12.43%     49.63% |    25513268     13.04%     62.67% |    24458063     12.50%     75.17% |    24604307     12.58%     87.75% |    23974237     12.25%    100.00% (Unspecified)
system.caches.L2Cache_Controller.L1_GETS::total    195642163                       (Unspecified)
system.caches.L2Cache_Controller.L1_GETX |       88711     11.89%     11.89% |       80895     10.84%     22.73% |       71972      9.65%     32.38% |      158075     21.18%     53.56% |       79623     10.67%     64.23% |       95195     12.76%     76.99% |       84751     11.36%     88.35% |       86947     11.65%    100.00% (Unspecified)
system.caches.L2Cache_Controller.L1_GETX::total       746169                       (Unspecified)
system.caches.L2Cache_Controller.L1_UPGRADE |         352      0.29%      0.29% |       56049     45.70%     45.99% |         172      0.14%     46.13% |         151      0.12%     46.25% |         212      0.17%     46.43% |       54698     44.60%     91.03% |       10775      8.79%     99.81% |         231      0.19%    100.00% (Unspecified)
system.caches.L2Cache_Controller.L1_UPGRADE::total       122640                       (Unspecified)
system.caches.L2Cache_Controller.L1_PUTX |     5161381     12.52%     12.52% |     5155352     12.51%     25.03% |     5132956     12.45%     37.49% |     5127936     12.44%     49.93% |     5197093     12.61%     62.54% |     5181994     12.57%     75.11% |     5172067     12.55%     87.66% |     5083914     12.34%    100.00% (Unspecified)
system.caches.L2Cache_Controller.L1_PUTX::total     41212693                       (Unspecified)
system.caches.L2Cache_Controller.L2_Replacement |      130093     12.53%     12.53% |      129750     12.49%     25.02% |      129682     12.49%     37.51% |      129700     12.49%     50.00% |      129627     12.48%     62.48% |      130054     12.52%     75.00% |      129737     12.49%     87.49% |      129906     12.51%    100.00% (Unspecified)
system.caches.L2Cache_Controller.L2_Replacement::total      1038549                       (Unspecified)
system.caches.L2Cache_Controller.L2_Replacement_clean |     2620571     12.50%     12.50% |     2622404     12.51%     25.01% |     2620436     12.50%     37.51% |     2618555     12.49%     50.00% |     2618445     12.49%     62.50% |     2621960     12.51%     75.00% |     2618462     12.49%     87.49% |     2621362     12.51%    100.00% (Unspecified)
system.caches.L2Cache_Controller.L2_Replacement_clean::total     20962195                       (Unspecified)
system.caches.L2Cache_Controller.Mem_Data |     2767049     12.50%     12.50% |     2768537     12.51%     25.01% |     2766502     12.50%     37.51% |     2764639     12.49%     50.00% |     2764456     12.49%     62.49% |     2768398     12.51%     75.00% |     2764583     12.49%     87.49% |     2767652     12.51%    100.00% (Unspecified)
system.caches.L2Cache_Controller.Mem_Data::total     22131816                       (Unspecified)
system.caches.L2Cache_Controller.Mem_Ack |     2750665     12.50%     12.50% |     2752154     12.51%     25.01% |     2750118     12.50%     37.51% |     2748255     12.49%     50.00% |     2748072     12.49%     62.49% |     2752014     12.51%     75.00% |     2748199     12.49%     87.49% |     2751268     12.51%    100.00% (Unspecified)
system.caches.L2Cache_Controller.Mem_Ack::total     22000745                       (Unspecified)
system.caches.L2Cache_Controller.WB_Data |        3319      2.73%      2.73% |       54028     44.51%     47.24% |         420      0.35%     47.59% |         357      0.29%     47.88% |         487      0.40%     48.28% |       53503     44.07%     92.36% |        8758      7.21%     99.57% |         520      0.43%    100.00% (Unspecified)
system.caches.L2Cache_Controller.WB_Data::total       121392                       (Unspecified)
system.caches.L2Cache_Controller.WB_Data_clean |      174970     11.88%     11.88% |      176632     11.99%     23.86% |      175133     11.89%     35.75% |      173607     11.78%     47.54% |      171374     11.63%     59.17% |      173272     11.76%     70.93% |      173994     11.81%     82.74% |      254321     17.26%    100.00% (Unspecified)
system.caches.L2Cache_Controller.WB_Data_clean::total      1473303                       (Unspecified)
system.caches.L2Cache_Controller.Ack     |      160445     11.88%     11.88% |      161254     11.94%     23.82% |      159761     11.83%     35.64% |      157750     11.68%     47.32% |      156574     11.59%     58.91% |      158374     11.72%     70.64% |      158359     11.72%     82.36% |      238244     17.64%    100.00% (Unspecified)
system.caches.L2Cache_Controller.Ack::total      1350761                       (Unspecified)
system.caches.L2Cache_Controller.Ack_all |      163722     11.91%     11.91% |      164654     11.98%     23.88% |      162775     11.84%     35.72% |      160787     11.69%     47.42% |      159176     11.58%     58.99% |      161134     11.72%     70.71% |      161007     11.71%     82.42% |      241700     17.58%    100.00% (Unspecified)
system.caches.L2Cache_Controller.Ack_all::total      1374955                       (Unspecified)
system.caches.L2Cache_Controller.Unblock |      178166     11.18%     11.18% |      230589     14.47%     25.64% |      175537     11.01%     36.66% |      173926     10.91%     47.57% |      171774     10.78%     58.34% |      226570     14.21%     72.56% |      182629     11.46%     84.02% |      254776     15.98%    100.00% (Unspecified)
system.caches.L2Cache_Controller.Unblock::total      1593967                       (Unspecified)
system.caches.L2Cache_Controller.Exclusive_Unblock |     5341156     12.45%     12.45% |     5387723     12.56%     25.01% |     5308974     12.38%     37.39% |     5382970     12.55%     49.94% |     5369380     12.52%     62.45% |     5410530     12.61%     75.07% |     5355366     12.48%     87.55% |     5339293     12.45%    100.00% (Unspecified)
system.caches.L2Cache_Controller.Exclusive_Unblock::total     42895392                       (Unspecified)
system.caches.L2Cache_Controller.MEM_Inv |           2    100.00%    100.00% |           0      0.00%    100.00% |           0      0.00%    100.00% |           0      0.00%    100.00% |           0      0.00%    100.00% |           0      0.00%    100.00% |           0      0.00%    100.00% |           0      0.00%    100.00% (Unspecified)
system.caches.L2Cache_Controller.MEM_Inv::total            2                       (Unspecified)
system.caches.L2Cache_Controller.NP.L1_GET_INSTR |        8726     13.69%     13.69% |        9118     14.31%     28.00% |        7839     12.30%     40.31% |        7287     11.44%     51.74% |        7992     12.54%     64.28% |        7931     12.45%     76.73% |        7058     11.08%     87.81% |        7769     12.19%    100.00% (Unspecified)
system.caches.L2Cache_Controller.NP.L1_GET_INSTR::total        63720                       (Unspecified)
system.caches.L2Cache_Controller.NP.L1_GETS |     2712182     12.50%     12.50% |     2713556     12.50%     25.00% |     2712824     12.50%     37.50% |     2711451     12.49%     50.00% |     2710590     12.49%     62.49% |     2714204     12.51%     75.00% |     2711555     12.50%     87.49% |     2713965     12.51%    100.00% (Unspecified)
system.caches.L2Cache_Controller.NP.L1_GETS::total     21700327                       (Unspecified)
system.caches.L2Cache_Controller.NP.L1_GETX |       46141     12.55%     12.55% |       45864     12.47%     25.02% |       45839     12.46%     37.48% |       45901     12.48%     49.96% |       45874     12.47%     62.44% |       46263     12.58%     75.01% |       45970     12.50%     87.51% |       45918     12.49%    100.00% (Unspecified)
system.caches.L2Cache_Controller.NP.L1_GETX::total       367770                       (Unspecified)
system.caches.L2Cache_Controller.SS.L1_GET_INSTR |        5630      3.86%      3.86% |       19464     13.34%     17.20% |       17619     12.08%     29.28% |        4874      3.34%     32.62% |       12297      8.43%     41.04% |       25372     17.39%     58.43% |       32479     22.26%     80.70% |       28166     19.30%    100.00% (Unspecified)
system.caches.L2Cache_Controller.SS.L1_GET_INSTR::total       145901                       (Unspecified)
system.caches.L2Cache_Controller.SS.L1_GETS |    19071584     12.55%     12.55% |    18897202     12.43%     24.98% |    18481070     12.16%     37.14% |    18916294     12.44%     49.58% |    20051662     13.19%     62.77% |    18968233     12.48%     75.25% |    19152632     12.60%     87.85% |    18466230     12.15%    100.00% (Unspecified)
system.caches.L2Cache_Controller.SS.L1_GETS::total    152004907                       (Unspecified)
system.caches.L2Cache_Controller.SS.L1_GETX |       17764     14.16%     14.16% |       15273     12.18%     26.34% |       15053     12.00%     38.34% |       15065     12.01%     50.36% |       15110     12.05%     62.40% |       15069     12.02%     74.42% |       16742     13.35%     87.77% |       15341     12.23%    100.00% (Unspecified)
system.caches.L2Cache_Controller.SS.L1_GETX::total       125417                       (Unspecified)
system.caches.L2Cache_Controller.SS.L1_UPGRADE |         349      0.30%      0.30% |       54924     47.27%     47.57% |         172      0.15%     47.72% |         151      0.13%     47.85% |         212      0.18%     48.03% |       53506     46.05%     94.08% |        6647      5.72%     99.80% |         230      0.20%    100.00% (Unspecified)
system.caches.L2Cache_Controller.SS.L1_UPGRADE::total       116191                       (Unspecified)
system.caches.L2Cache_Controller.SS.L1_PUTX |           5     19.23%     19.23% |           2      7.69%     26.92% |           2      7.69%     34.62% |           4     15.38%     50.00% |           6     23.08%     73.08% |           3     11.54%     84.62% |           2      7.69%     92.31% |           2      7.69%    100.00% (Unspecified)
system.caches.L2Cache_Controller.SS.L1_PUTX::total           26                       (Unspecified)
system.caches.L2Cache_Controller.SS.L2_Replacement |       16037     12.50%     12.50% |       15980     12.46%     24.96% |       15833     12.34%     37.30% |       15973     12.45%     49.75% |       15931     12.42%     62.17% |       16074     12.53%     74.70% |       16018     12.49%     87.18% |       16441     12.82%    100.00% (Unspecified)
system.caches.L2Cache_Controller.SS.L2_Replacement::total       128287                       (Unspecified)
system.caches.L2Cache_Controller.SS.L2_Replacement_clean |      147503     11.84%     11.84% |      148500     11.92%     23.77% |      146849     11.79%     35.56% |      144619     11.61%     47.17% |      143161     11.49%     58.66% |      144918     11.64%     70.30% |      144821     11.63%     81.92% |      225127     18.08%    100.00% (Unspecified)
system.caches.L2Cache_Controller.SS.L2_Replacement_clean::total      1245498                       (Unspecified)
system.caches.L2Cache_Controller.M.L1_GETS |     2540236     12.49%     12.49% |     2538906     12.49%     24.98% |     2524132     12.41%     37.39% |     2513412     12.36%     49.75% |     2579096     12.68%     62.43% |     2548325     12.53%     74.96% |     2552508     12.55%     87.52% |     2538692     12.48%    100.00% (Unspecified)
system.caches.L2Cache_Controller.M.L1_GETS::total     20335307                       (Unspecified)
system.caches.L2Cache_Controller.M.L1_GETX |       23832     14.14%     14.14% |       18471     10.96%     25.09% |       11048      6.55%     31.64% |       16579      9.83%     41.48% |       18616     11.04%     52.52% |       32431     19.24%     71.75% |       22007     13.05%     84.81% |       25615     15.19%    100.00% (Unspecified)
system.caches.L2Cache_Controller.M.L1_GETX::total       168599                       (Unspecified)
system.caches.L2Cache_Controller.M.L2_Replacement |      113919     12.53%     12.53% |      113690     12.50%     25.03% |      113831     12.52%     37.54% |      113685     12.50%     50.04% |      113606     12.49%     62.53% |      113783     12.51%     75.04% |      113592     12.49%     87.53% |      113393     12.47%    100.00% (Unspecified)
system.caches.L2Cache_Controller.M.L2_Replacement::total       909499                       (Unspecified)
system.caches.L2Cache_Controller.M.L2_Replacement_clean |     2472901     12.54%     12.54% |     2473739     12.55%     25.09% |     2473496     12.55%     37.64% |     2473745     12.55%     50.18% |     2475203     12.55%     62.74% |     2476892     12.56%     75.30% |     2473477     12.55%     87.85% |     2396110     12.15%    100.00% (Unspecified)
system.caches.L2Cache_Controller.M.L2_Replacement_clean::total     19715563                       (Unspecified)
system.caches.L2Cache_Controller.MT.L1_GETS |      178166     11.18%     11.18% |      230589     14.47%     25.64% |      175537     11.01%     36.66% |      173926     10.91%     47.57% |      171774     10.78%     58.34% |      226570     14.21%     72.56% |      182629     11.46%     84.02% |      254776     15.98%    100.00% (Unspecified)
system.caches.L2Cache_Controller.MT.L1_GETS::total      1593967                       (Unspecified)
system.caches.L2Cache_Controller.MT.L1_GETX |         974      1.16%      1.16% |        1175      1.40%      2.55% |          32      0.04%      2.59% |       80523     95.73%     98.32% |          23      0.03%     98.35% |        1290      1.53%     99.88% |          30      0.04%     99.92% |          69      0.08%    100.00% (Unspecified)
system.caches.L2Cache_Controller.MT.L1_GETX::total        84116                       (Unspecified)
system.caches.L2Cache_Controller.MT.L1_PUTX |     5161371     12.52%     12.52% |     5155348     12.51%     25.03% |     5132952     12.45%     37.49% |     5127928     12.44%     49.93% |     5197081     12.61%     62.54% |     5181988     12.57%     75.11% |     5172063     12.55%     87.66% |     5083910     12.34%    100.00% (Unspecified)
system.caches.L2Cache_Controller.MT.L1_PUTX::total     41212641                       (Unspecified)
system.caches.L2Cache_Controller.MT.L2_Replacement |         137     17.96%     17.96% |          80     10.48%     28.44% |          18      2.36%     30.80% |          42      5.50%     36.30% |          90     11.80%     48.10% |         197     25.82%     73.92% |         127     16.64%     90.56% |          72      9.44%    100.00% (Unspecified)
system.caches.L2Cache_Controller.MT.L2_Replacement::total          763                       (Unspecified)
system.caches.L2Cache_Controller.MT.L2_Replacement_clean |         167     14.73%     14.73% |         165     14.55%     29.28% |          91      8.02%     37.30% |         191     16.84%     54.14% |          81      7.14%     61.29% |         150     13.23%     74.51% |         164     14.46%     88.98% |         125     11.02%    100.00% (Unspecified)
system.caches.L2Cache_Controller.MT.L2_Replacement_clean::total         1134                       (Unspecified)
system.caches.L2Cache_Controller.MT.MEM_Inv |           1    100.00%    100.00% |           0      0.00%    100.00% |           0      0.00%    100.00% |           0      0.00%    100.00% |           0      0.00%    100.00% |           0      0.00%    100.00% |           0      0.00%    100.00% |           0      0.00%    100.00% (Unspecified)
system.caches.L2Cache_Controller.MT.MEM_Inv::total            1                       (Unspecified)
system.caches.L2Cache_Controller.M_I.L1_GET_INSTR |           3      2.52%      2.52% |           2      1.68%      4.20% |           2      1.68%      5.88% |         110     92.44%     98.32% |           0      0.00%     98.32% |           0      0.00%     98.32% |           2      1.68%    100.00% |           0      0.00%    100.00% (Unspecified)
system.caches.L2Cache_Controller.M_I.L1_GET_INSTR::total          119                       (Unspecified)
system.caches.L2Cache_Controller.M_I.L1_GETS |          23     65.71%     65.71% |           1      2.86%     68.57% |           1      2.86%     71.43% |           2      5.71%     77.14% |           2      5.71%     82.86% |           3      8.57%     91.43% |           0      0.00%     91.43% |           3      8.57%    100.00% (Unspecified)
system.caches.L2Cache_Controller.M_I.L1_GETS::total           35                       (Unspecified)
system.caches.L2Cache_Controller.M_I.L1_GETX |           0      0.00%      0.00% |           0      0.00%      0.00% |           0      0.00%      0.00% |           5     55.56%     55.56% |           0      0.00%     55.56% |           1     11.11%     66.67% |           1     11.11%     77.78% |           2     22.22%    100.00% (Unspecified)
system.caches.L2Cache_Controller.M_I.L1_GETX::total            9                       (Unspecified)
system.caches.L2Cache_Controller.M_I.Mem_Ack |     2750665     12.50%     12.50% |     2752154     12.51%     25.01% |     2750118     12.50%     37.51% |     2748255     12.49%     50.00% |     2748072     12.49%     62.49% |     2752014     12.51%     75.00% |     2748199     12.49%     87.49% |     2751268     12.51%    100.00% (Unspecified)
system.caches.L2Cache_Controller.M_I.Mem_Ack::total     22000745                       (Unspecified)
system.caches.L2Cache_Controller.MT_I.WB_Data |         116     17.47%     17.47% |          66      9.94%     27.41% |          10      1.51%     28.92% |          33      4.97%     33.89% |          83     12.50%     46.39% |         182     27.41%     73.80% |         113     17.02%     90.81% |          61      9.19%    100.00% (Unspecified)
system.caches.L2Cache_Controller.MT_I.WB_Data::total          664                       (Unspecified)
system.caches.L2Cache_Controller.MT_I.Ack_all |          22     22.00%     22.00% |          14     14.00%     36.00% |           8      8.00%     44.00% |           9      9.00%     53.00% |           7      7.00%     60.00% |          15     15.00%     75.00% |          14     14.00%     89.00% |          11     11.00%    100.00% (Unspecified)
system.caches.L2Cache_Controller.MT_I.Ack_all::total          100                       (Unspecified)
system.caches.L2Cache_Controller.MT_I.MEM_Inv |           1    100.00%    100.00% |           0      0.00%    100.00% |           0      0.00%    100.00% |           0      0.00%    100.00% |           0      0.00%    100.00% |           0      0.00%    100.00% |           0      0.00%    100.00% |           0      0.00%    100.00% (Unspecified)
system.caches.L2Cache_Controller.MT_I.MEM_Inv::total            1                       (Unspecified)
system.caches.L2Cache_Controller.MCT_I.WB_Data |           7     10.94%     10.94% |           5      7.81%     18.75% |           6      9.38%     28.12% |           5      7.81%     35.94% |           4      6.25%     42.19% |          23     35.94%     78.12% |          10     15.62%     93.75% |           4      6.25%    100.00% (Unspecified)
system.caches.L2Cache_Controller.MCT_I.WB_Data::total           64                       (Unspecified)
system.caches.L2Cache_Controller.MCT_I.Ack_all |         160     14.95%     14.95% |         160     14.95%     29.91% |          85      7.94%     37.85% |         186     17.38%     55.23% |          77      7.20%     62.43% |         127     11.87%     74.30% |         154     14.39%     88.69% |         121     11.31%    100.00% (Unspecified)
system.caches.L2Cache_Controller.MCT_I.Ack_all::total         1070                       (Unspecified)
system.caches.L2Cache_Controller.I_I.L1_GET_INSTR |           0      0.00%      0.00% |           0      0.00%      0.00% |           0      0.00%      0.00% |           1    100.00%    100.00% |           0      0.00%    100.00% |           0      0.00%    100.00% |           0      0.00%    100.00% |           0      0.00%    100.00% (Unspecified)
system.caches.L2Cache_Controller.I_I.L1_GET_INSTR::total            1                       (Unspecified)
system.caches.L2Cache_Controller.I_I.Ack |      144408     11.81%     11.81% |      145274     11.88%     23.70% |      143928     11.77%     35.47% |      141777     11.60%     47.07% |      140643     11.50%     58.57% |      142300     11.64%     70.21% |      142341     11.64%     81.86% |      221803     18.14%    100.00% (Unspecified)
system.caches.L2Cache_Controller.I_I.Ack::total      1222474                       (Unspecified)
system.caches.L2Cache_Controller.I_I.Ack_all |      147503     11.84%     11.84% |      148500     11.92%     23.77% |      146849     11.79%     35.56% |      144619     11.61%     47.17% |      143161     11.49%     58.66% |      144918     11.64%     70.30% |      144821     11.63%     81.92% |      225127     18.08%    100.00% (Unspecified)
system.caches.L2Cache_Controller.I_I.Ack_all::total      1245498                       (Unspecified)
system.caches.L2Cache_Controller.S_I.Ack |       16037     12.50%     12.50% |       15980     12.46%     24.96% |       15833     12.34%     37.30% |       15973     12.45%     49.75% |       15931     12.42%     62.17% |       16074     12.53%     74.70% |       16018     12.49%     87.18% |       16441     12.82%    100.00% (Unspecified)
system.caches.L2Cache_Controller.S_I.Ack::total       128287                       (Unspecified)
system.caches.L2Cache_Controller.S_I.Ack_all |       16037     12.50%     12.50% |       15980     12.46%     24.96% |       15833     12.34%     37.30% |       15973     12.45%     49.75% |       15931     12.42%     62.17% |       16074     12.53%     74.70% |       16018     12.49%     87.18% |       16441     12.82%    100.00% (Unspecified)
system.caches.L2Cache_Controller.S_I.Ack_all::total       128287                       (Unspecified)
system.caches.L2Cache_Controller.ISS.L1_GETS |         322     13.80%     13.80% |         445     19.07%     32.86% |         126      5.40%     38.26% |         112      4.80%     43.06% |         141      6.04%     49.10% |         558     23.91%     73.01% |          93      3.98%     76.99% |         537     23.01%    100.00% (Unspecified)
system.caches.L2Cache_Controller.ISS.L1_GETS::total         2334                       (Unspecified)
system.caches.L2Cache_Controller.ISS.L1_GETX |           0      0.00%      0.00% |           0      0.00%      0.00% |           0      0.00%      0.00% |           0      0.00%      0.00% |           0      0.00%      0.00% |           0      0.00%      0.00% |           1    100.00%    100.00% |           0      0.00%    100.00% (Unspecified)
system.caches.L2Cache_Controller.ISS.L1_GETX::total            1                       (Unspecified)
system.caches.L2Cache_Controller.ISS.Mem_Data |     2711860     12.50%     12.50% |     2713110     12.50%     25.00% |     2712698     12.50%     37.50% |     2711339     12.50%     50.00% |     2710449     12.49%     62.49% |     2713646     12.51%     75.00% |     2711462     12.50%     87.49% |     2713428     12.51%    100.00% (Unspecified)
system.caches.L2Cache_Controller.ISS.Mem_Data::total     21697992                       (Unspecified)
system.caches.L2Cache_Controller.IS.L1_GET_INSTR |        2748     16.12%     16.12% |        2754     16.16%     32.28% |        1833     10.75%     43.03% |        2131     12.50%     55.53% |        2217     13.01%     68.54% |        1800     10.56%     79.10% |        1709     10.03%     89.12% |        1854     10.88%    100.00% (Unspecified)
system.caches.L2Cache_Controller.IS.L1_GET_INSTR::total        17046                       (Unspecified)
system.caches.L2Cache_Controller.IS.Mem_Data |        9048     13.70%     13.70% |        9563     14.48%     28.18% |        7965     12.06%     40.23% |        7399     11.20%     51.44% |        8133     12.31%     63.75% |        8489     12.85%     76.60% |        7151     10.83%     87.43% |        8306     12.57%    100.00% (Unspecified)
system.caches.L2Cache_Controller.IS.Mem_Data::total        66054                       (Unspecified)
system.caches.L2Cache_Controller.IM.L1_GETX |           0      0.00%      0.00% |           1    100.00%    100.00% |           0      0.00%    100.00% |           0      0.00%    100.00% |           0      0.00%    100.00% |           0      0.00%    100.00% |           0      0.00%    100.00% |           0      0.00%    100.00% (Unspecified)
system.caches.L2Cache_Controller.IM.L1_GETX::total            1                       (Unspecified)
system.caches.L2Cache_Controller.IM.Mem_Data |       46141     12.55%     12.55% |       45864     12.47%     25.02% |       45839     12.46%     37.48% |       45901     12.48%     49.96% |       45874     12.47%     62.44% |       46263     12.58%     75.01% |       45970     12.50%     87.51% |       45918     12.49%    100.00% (Unspecified)
system.caches.L2Cache_Controller.IM.Mem_Data::total       367770                       (Unspecified)
system.caches.L2Cache_Controller.SS_MB.L1_GETS |           1      0.02%      0.02% |         150      2.89%      2.91% |           0      0.00%      2.91% |           0      0.00%      2.91% |           1      0.02%      2.93% |         157      3.02%      5.95% |        4884     94.00%     99.94% |           3      0.06%    100.00% (Unspecified)
system.caches.L2Cache_Controller.SS_MB.L1_GETS::total         5196                       (Unspecified)
system.caches.L2Cache_Controller.SS_MB.L1_GETX |           0      0.00%      0.00% |         111     44.22%     44.22% |           0      0.00%     44.22% |           0      0.00%     44.22% |           0      0.00%     44.22% |         140     55.78%    100.00% |           0      0.00%    100.00% |           0      0.00%    100.00% (Unspecified)
system.caches.L2Cache_Controller.SS_MB.L1_GETX::total          251                       (Unspecified)
system.caches.L2Cache_Controller.SS_MB.L1_UPGRADE |           2      0.10%      0.10% |        1001     48.19%     48.29% |           0      0.00%     48.29% |           0      0.00%     48.29% |           0      0.00%     48.29% |        1073     51.66%     99.95% |           0      0.00%     99.95% |           1      0.05%    100.00% (Unspecified)
system.caches.L2Cache_Controller.SS_MB.L1_UPGRADE::total         2077                       (Unspecified)
[...]
system.timingCpu0.exec_context.thread_0.statExecutedInstType::IprAccess            0      0.00%    100.00% # Class of executed instruction. (Count)
system.timingCpu0.exec_context.thread_0.statExecutedInstType::InstPrefetch            0      0.00%    100.00% # Class of executed instruction. (Count)
system.timingCpu0.exec_context.thread_0.statExecutedInstType::total   1473312312                       # Class of executed instruction. (Count)
system.timingCpu0.mmu.dtb.rdAccesses        319348503                       # TLB accesses on read requests (Count)
system.timingCpu0.mmu.dtb.wrAccesses         10557595                       # TLB accesses on write requests (Count)
system.timingCpu0.mmu.dtb.rdMisses           30892940                       # TLB misses on read requests (Count)
system.timingCpu0.mmu.dtb.wrMisses              10390                       # TLB misses on write requests (Count)
system.timingCpu0.mmu.dtb.walker.power_state.pwrStateResidencyTicks::UNDEFINED 164799322366500                       # Cumulative time (in ticks) in various power states (Tick)
system.timingCpu0.mmu.itb.rdAccesses                0                       # TLB accesses on read requests (Count)
system.timingCpu0.mmu.itb.wrAccesses       1057459087                       # TLB accesses on write requests (Count)
system.timingCpu0.mmu.itb.rdMisses                  0                       # TLB misses on read requests (Count)
system.timingCpu0.mmu.itb.wrMisses               9322                       # TLB misses on write requests (Count)
system.timingCpu0.mmu.itb.walker.power_state.pwrStateResidencyTicks::UNDEFINED 164799322366500                       # Cumulative time (in ticks) in various power states (Tick)
system.timingCpu0.power_state.numTransitions           40                       # Number of power state transitions (Count)
system.timingCpu0.power_state.ticksClkGated::samples           20                       # Distribution of time spent in the clock gated state (Tick)
system.timingCpu0.power_state.ticksClkGated::mean 566183087.500000                       # Distribution of time spent in the clock gated state (Tick)
system.timingCpu0.power_state.ticksClkGated::stdev 337261934.835622                       # Distribution of time spent in the clock gated state (Tick)
system.timingCpu0.power_state.ticksClkGated::1000-5e+10           20    100.00%    100.00% # Distribution of time spent in the clock gated state (Tick)
system.timingCpu0.power_state.ticksClkGated::min_value     99714750                       # Distribution of time spent in the clock gated state (Tick)
system.timingCpu0.power_state.ticksClkGated::max_value    992175250                       # Distribution of time spent in the clock gated state (Tick)
system.timingCpu0.power_state.ticksClkGated::total           20                       # Distribution of time spent in the clock gated state (Tick)
system.timingCpu0.power_state.pwrStateResidencyTicks::ON 1689164688750                       # Cumulative time (in ticks) in various power states (Tick)
system.timingCpu0.power_state.pwrStateResidencyTicks::CLK_GATED  11323661750                       # Cumulative time (in ticks) in various power states (Tick)
system.timingCpu0.power_state.pwrStateResidencyTicks::OFF 163098834016000                       # Cumulative time (in ticks) in various power states (Tick)
system.timingCpu0.thread_0.numInsts                 0                       # Number of Instructions committed (Count)
system.timingCpu0.thread_0.numOps                   0                       # Number of Ops committed (Count)
system.timingCpu0.thread_0.numMemRefs               0                       # Number of Memory References (Count)
system.timingCpu1.numCycles                8000000000                       # Number of cpu cycles simulated (Cycle)
system.timingCpu1.numWorkItemsStarted               0                       # Number of work items this cpu started (Count)
system.timingCpu1.numWorkItemsCompleted             0                       # Number of work items this cpu completed (Count)
system.timingCpu1.exec_context.thread_0.numInsts    741811687                       # Number of instructions committed (Count)
system.timingCpu1.exec_context.thread_0.numOps   1441080197                       # Number of ops (including micro ops) committed (Count)
system.timingCpu1.exec_context.thread_0.numIntAluAccesses   1247134695                       # Number of integer alu accesses (Count)
system.timingCpu1.exec_context.thread_0.numFpAluAccesses    334616495                       # Number of float alu accesses (Count)
system.timingCpu1.exec_context.thread_0.numVecAluAccesses            0                       # Number of vector alu accesses (Count)
system.timingCpu1.exec_context.thread_0.numCallsReturns       461524                       # Number of times a function call or return occured (Count)
system.timingCpu1.exec_context.thread_0.numCondCtrlInsts    137527538                       # Number of instructions that are conditional controls (Count)
system.timingCpu1.exec_context.thread_0.numIntInsts   1247134695                       # Number of integer instructions (Count)
system.timingCpu1.exec_context.thread_0.numFpInsts    334616495                       # Number of float instructions (Count)
system.timingCpu1.exec_context.thread_0.numVecInsts            0                       # Number of vector instructions (Count)
system.timingCpu1.exec_context.thread_0.numIntRegReads   1415612806                       # Number of times the integer registers were read (Count)
system.timingCpu1.exec_context.thread_0.numIntRegWrites    824808913                       # Number of times the integer registers were written (Count)
system.timingCpu1.exec_context.thread_0.numFpRegReads    503429520                       # Number of times the floating registers were read (Count)
system.timingCpu1.exec_context.thread_0.numFpRegWrites    326403594                       # Number of times the floating registers were written (Count)
system.timingCpu1.exec_context.thread_0.numVecRegReads            0                       # Number of times the vector registers were read (Count)
system.timingCpu1.exec_context.thread_0.numVecRegWrites            0                       # Number of times the vector registers were written (Count)
system.timingCpu1.exec_context.thread_0.numVecPredRegReads            0                       # Number of times the predicate registers were read (Count)
system.timingCpu1.exec_context.thread_0.numVecPredRegWrites            0                       # Number of times the predicate registers were written (Count)
system.timingCpu1.exec_context.thread_0.numCCRegReads    693891430                       # Number of times the CC registers were read (Count)
system.timingCpu1.exec_context.thread_0.numCCRegWrites    555693418                       # Number of times the CC registers were written (Count)
system.timingCpu1.exec_context.thread_0.numMiscRegReads    566255667                       # Number of times the Misc registers were read (Count)
system.timingCpu1.exec_context.thread_0.numMiscRegWrites        72052                       # Number of times the Misc registers were written (Count)
system.timingCpu1.exec_context.thread_0.numMemRefs    286410758                       # Number of memory refs (Count)
system.timingCpu1.exec_context.thread_0.numLoadInsts    277184801                       # Number of load instructions (Count)
system.timingCpu1.exec_context.thread_0.numStoreInsts      9225957                       # Number of store instructions (Count)
system.timingCpu1.exec_context.thread_0.numIdleCycles 60359629.999970                       # Number of idle cycles (Cycle)
system.timingCpu1.exec_context.thread_0.numBusyCycles 7939640370.000031                       # Number of busy cycles (Cycle)
system.timingCpu1.exec_context.thread_0.notIdleFraction     0.992455                       # Percentage of non-idle cycles (Ratio)
system.timingCpu1.exec_context.thread_0.idleFraction     0.007545                       # Percentage of idle cycles (Ratio)
system.timingCpu1.exec_context.thread_0.numBranches    139894674                       # Number of branches fetched (Count)
system.timingCpu1.exec_context.thread_0.statExecutedInstType::No_OpClass      2634602      0.18%      0.18% # Class of executed instruction. (Count)
system.timingCpu1.exec_context.thread_0.statExecutedInstType::IntAlu    957683928     66.46%     66.64% # Class of executed instruction. (Count)
system.timingCpu1.exec_context.thread_0.statExecutedInstType::IntMult        47388      0.00%     66.64% # Class of executed instruction. (Count)
system.timingCpu1.exec_context.thread_0.statExecutedInstType::IntDiv        94194      0.01%     66.65% # Class of executed instruction. (Count)
system.timingCpu1.exec_context.thread_0.statExecutedInstType::FloatAdd     16099035      1.12%     67.77% # Class of executed instruction. (Count)
system.timingCpu1.exec_context.thread_0.statExecutedInstType::FloatCmp            0      0.00%     67.77% # Class of executed instruction. (Count)
system.timingCpu1.exec_context.thread_0.statExecutedInstType::FloatCvt          272      0.00%     67.77% # Class of executed instruction. (Count)
system.timingCpu1.exec_context.thread_0.statExecutedInstType::FloatMult            0      0.00%     67.77% # Class of executed instruction. (Count)
system.timingCpu1.exec_context.thread_0.statExecutedInstType::FloatMultAcc            0      0.00%     67.77% # Class of executed instruction. (Count)
system.timingCpu1.exec_context.thread_0.statExecutedInstType::FloatDiv            0      0.00%     67.77% # Class of executed instruction. (Count)
system.timingCpu1.exec_context.thread_0.statExecutedInstType::FloatMisc            0      0.00%     67.77% # Class of executed instruction. (Count)
system.timingCpu1.exec_context.thread_0.statExecutedInstType::FloatSqrt            0      0.00%     67.77% # Class of executed instruction. (Count)
system.timingCpu1.exec_context.thread_0.statExecutedInstType::SimdAdd           80      0.00%     67.77% # Class of executed instruction. (Count)
system.timingCpu1.exec_context.thread_0.statExecutedInstType::SimdAddAcc            0      0.00%     67.77% # Class of executed instruction. (Count)
system.timingCpu1.exec_context.thread_0.statExecutedInstType::SimdAlu     23950070      1.66%     69.43% # Class of executed instruction. (Count)
system.timingCpu1.exec_context.thread_0.statExecutedInstType::SimdCmp            0      0.00%     69.43% # Class of executed instruction. (Count)
system.timingCpu1.exec_context.thread_0.statExecutedInstType::SimdCvt          496      0.00%     69.43% # Class of executed instruction. (Count)
system.timingCpu1.exec_context.thread_0.statExecutedInstType::SimdMisc      3670696      0.25%     69.68% # Class of executed instruction. (Count)
system.timingCpu1.exec_context.thread_0.statExecutedInstType::SimdMult            0      0.00%     69.68% # Class of executed instruction. (Count)
system.timingCpu1.exec_context.thread_0.statExecutedInstType::SimdMultAcc            0      0.00%     69.68% # Class of executed instruction. (Count)
system.timingCpu1.exec_context.thread_0.statExecutedInstType::SimdShift           64      0.00%     69.68% # Class of executed instruction. (Count)
system.timingCpu1.exec_context.thread_0.statExecutedInstType::SimdShiftAcc            0      0.00%     69.68% # Class of executed instruction. (Count)
system.timingCpu1.exec_context.thread_0.statExecutedInstType::SimdDiv            0      0.00%     69.68% # Class of executed instruction. (Count)
system.timingCpu1.exec_context.thread_0.statExecutedInstType::SimdSqrt            0      0.00%     69.68% # Class of executed instruction. (Count)
system.timingCpu1.exec_context.thread_0.statExecutedInstType::SimdFloatAdd    136439258      9.47%     79.15% # Class of executed instruction. (Count)
system.timingCpu1.exec_context.thread_0.statExecutedInstType::SimdFloatAlu            0      0.00%     79.15% # Class of executed instruction. (Count)
system.timingCpu1.exec_context.thread_0.statExecutedInstType::SimdFloatCmp            0      0.00%     79.15% # Class of executed instruction. (Count)
system.timingCpu1.exec_context.thread_0.statExecutedInstType::SimdFloatCvt      7822329      0.54%     79.69% # Class of executed instruction. (Count)
system.timingCpu1.exec_context.thread_0.statExecutedInstType::SimdFloatDiv      3670009      0.25%     79.95% # Class of executed instruction. (Count)
system.timingCpu1.exec_context.thread_0.statExecutedInstType::SimdFloatMisc            0      0.00%     79.95% # Class of executed instruction. (Count)
system.timingCpu1.exec_context.thread_0.statExecutedInstType::SimdFloatMult      2557022      0.18%     80.13% # Class of executed instruction. (Count)
system.timingCpu1.exec_context.thread_0.statExecutedInstType::SimdFloatMultAcc            0      0.00%     80.13% # Class of executed instruction. (Count)
system.timingCpu1.exec_context.thread_0.statExecutedInstType::SimdFloatSqrt            0      0.00%     80.13% # Class of executed instruction. (Count)
system.timingCpu1.exec_context.thread_0.statExecutedInstType::SimdReduceAdd            0      0.00%     80.13% # Class of executed instruction. (Count)
system.timingCpu1.exec_context.thread_0.statExecutedInstType::SimdReduceAlu            0      0.00%     80.13% # Class of executed instruction. (Count)
system.timingCpu1.exec_context.thread_0.statExecutedInstType::SimdReduceCmp            0      0.00%     80.13% # Class of executed instruction. (Count)
system.timingCpu1.exec_context.thread_0.statExecutedInstType::SimdFloatReduceAdd            0      0.00%     80.13% # Class of executed instruction. (Count)
system.timingCpu1.exec_context.thread_0.statExecutedInstType::SimdFloatReduceCmp            0      0.00%     80.13% # Class of executed instruction. (Count)
system.timingCpu1.exec_context.thread_0.statExecutedInstType::SimdAes            0      0.00%     80.13% # Class of executed instruction. (Count)
system.timingCpu1.exec_context.thread_0.statExecutedInstType::SimdAesMix            0      0.00%     80.13% # Class of executed instruction. (Count)
system.timingCpu1.exec_context.thread_0.statExecutedInstType::SimdSha1Hash            0      0.00%     80.13% # Class of executed instruction. (Count)
system.timingCpu1.exec_context.thread_0.statExecutedInstType::SimdSha1Hash2            0      0.00%     80.13% # Class of executed instruction. (Count)
system.timingCpu1.exec_context.thread_0.statExecutedInstType::SimdSha256Hash            0      0.00%     80.13% # Class of executed instruction. (Count)
system.timingCpu1.exec_context.thread_0.statExecutedInstType::SimdSha256Hash2            0      0.00%     80.13% # Class of executed instruction. (Count)
system.timingCpu1.exec_context.thread_0.statExecutedInstType::SimdShaSigma2            0      0.00%     80.13% # Class of executed instruction. (Count)
system.timingCpu1.exec_context.thread_0.statExecutedInstType::SimdShaSigma3            0      0.00%     80.13% # Class of executed instruction. (Count)
system.timingCpu1.exec_context.thread_0.statExecutedInstType::SimdPredAlu            0      0.00%     80.13% # Class of executed instruction. (Count)
system.timingCpu1.exec_context.thread_0.statExecutedInstType::MemRead    144990097     10.06%     90.19% # Class of executed instruction. (Count)
system.timingCpu1.exec_context.thread_0.statExecutedInstType::MemWrite      1013660      0.07%     90.26% # Class of executed instruction. (Count)
system.timingCpu1.exec_context.thread_0.statExecutedInstType::FloatMemRead    132194704      9.17%     99.43% # Class of executed instruction. (Count)
system.timingCpu1.exec_context.thread_0.statExecutedInstType::FloatMemWrite      8212297      0.57%    100.00% # Class of executed instruction. (Count)
system.timingCpu1.exec_context.thread_0.statExecutedInstType::IprAccess            0      0.00%    100.00% # Class of executed instruction. (Count)
system.timingCpu1.exec_context.thread_0.statExecutedInstType::InstPrefetch            0      0.00%    100.00% # Class of executed instruction. (Count)
system.timingCpu1.exec_context.thread_0.statExecutedInstType::total   1441080201                       # Class of executed instruction. (Count)
system.timingCpu1.mmu.dtb.rdAccesses        316070850                       # TLB accesses on read requests (Count)
system.timingCpu1.mmu.dtb.wrAccesses          9280466                       # TLB accesses on write requests (Count)
system.timingCpu1.mmu.dtb.rdMisses           31007733                       # TLB misses on read requests (Count)
system.timingCpu1.mmu.dtb.wrMisses              54798                       # TLB misses on write requests (Count)
system.timingCpu1.mmu.dtb.walker.power_state.pwrStateResidencyTicks::UNDEFINED 164799322366500                       # Cumulative time (in ticks) in various power states (Tick)
system.timingCpu1.mmu.itb.rdAccesses                0                       # TLB accesses on read requests (Count)
system.timingCpu1.mmu.itb.wrAccesses       1036169509                       # TLB accesses on write requests (Count)
system.timingCpu1.mmu.itb.rdMisses                  0                       # TLB misses on read requests (Count)
system.timingCpu1.mmu.itb.wrMisses               8257                       # TLB misses on write requests (Count)
system.timingCpu1.mmu.itb.walker.power_state.pwrStateResidencyTicks::UNDEFINED 164799322366500                       # Cumulative time (in ticks) in various power states (Tick)
system.timingCpu1.power_state.numTransitions           32                       # Number of power state transitions (Count)
system.timingCpu1.power_state.ticksClkGated::samples           16                       # Distribution of time spent in the clock gated state (Tick)
system.timingCpu1.power_state.ticksClkGated::mean 943119218.750000                       # Distribution of time spent in the clock gated state (Tick)
system.timingCpu1.power_state.ticksClkGated::stdev 126196896.066685                       # Distribution of time spent in the clock gated state (Tick)
system.timingCpu1.power_state.ticksClkGated::1000-5e+10           16    100.00%    100.00% # Distribution of time spent in the clock gated state (Tick)
system.timingCpu1.power_state.ticksClkGated::min_value    570127250                       # Distribution of time spent in the clock gated state (Tick)
system.timingCpu1.power_state.ticksClkGated::max_value    998237000                       # Distribution of time spent in the clock gated state (Tick)
system.timingCpu1.power_state.ticksClkGated::total           16                       # Distribution of time spent in the clock gated state (Tick)
system.timingCpu1.power_state.pwrStateResidencyTicks::ON 414916342750                       # Cumulative time (in ticks) in various power states (Tick)
system.timingCpu1.power_state.pwrStateResidencyTicks::CLK_GATED  15089907500                       # Cumulative time (in ticks) in various power states (Tick)
system.timingCpu1.power_state.pwrStateResidencyTicks::OFF 164369316116250                       # Cumulative time (in ticks) in various power states (Tick)
system.timingCpu1.thread_0.numInsts                 0                       # Number of Instructions committed (Count)
system.timingCpu1.thread_0.numOps                   0                       # Number of Ops committed (Count)
system.timingCpu1.thread_0.numMemRefs               0                       # Number of Memory References (Count)
system.workload.inst.arm                            0                       # number of arm instructions executed (Count)
system.workload.inst.quiesce                        0                       # number of quiesce instructions executed (Count)

---------- End Simulation Statistics   ----------
