
---------- Begin Simulation Statistics ----------
simSeconds                                          5                       # Number of seconds simulated (Second)
simTicks                                 5000000000000                       # Number of ticks simulated (Tick)
finalTick                                22143406829750                       # Number of ticks from beginning of simulation (restored from checkpoints and never reset) (Tick)
simFreq                                  1000000000000                       # The number of ticks per simulated second ((Tick/Second))
hostSeconds                                  39074.18                       # Real time elapsed on the host (Second)
hostTickRate                                127961731                       # The number of ticks simulated per host second (ticks/s) ((Tick/Second))
hostMemory                                    7247976                       # Number of bytes of host memory used (Byte)
simInsts                                  14421593147                       # Number of instructions simulated (Count)
simOps                                    23402304621                       # Number of ops (including micro ops) simulated (Count)
hostInstRate                                   369082                       # Simulator instruction rate (inst/s) ((Count/Second))
hostOpRate                                     598920                       # Simulator op (including micro ops) rate (op/s) ((Count/Second))
system.atomicCpu0.numCycles                         0                       # Number of cpu cycles simulated (Cycle)
system.atomicCpu0.numWorkItemsStarted               0                       # Number of work items this cpu started (Count)
system.atomicCpu0.numWorkItemsCompleted             0                       # Number of work items this cpu completed (Count)
system.atomicCpu0.exec_context.thread_0.numInsts            0                       # Number of instructions committed (Count)
system.atomicCpu0.exec_context.thread_0.numOps            0                       # Number of ops (including micro ops) committed (Count)
system.atomicCpu0.exec_context.thread_0.numIntAluAccesses            0                       # Number of integer alu accesses (Count)
system.atomicCpu0.exec_context.thread_0.numFpAluAccesses            0                       # Number of float alu accesses (Count)
system.atomicCpu0.exec_context.thread_0.numVecAluAccesses            0                       # Number of vector alu accesses (Count)
system.atomicCpu0.exec_context.thread_0.numCallsReturns            0                       # Number of times a function call or return occured (Count)
system.atomicCpu0.exec_context.thread_0.numCondCtrlInsts            0                       # Number of instructions that are conditional controls (Count)
system.atomicCpu0.exec_context.thread_0.numIntInsts            0                       # Number of integer instructions (Count)
system.atomicCpu0.exec_context.thread_0.numFpInsts            0                       # Number of float instructions (Count)
system.atomicCpu0.exec_context.thread_0.numVecInsts            0                       # Number of vector instructions (Count)
system.atomicCpu0.exec_context.thread_0.numIntRegReads            0                       # Number of times the integer registers were read (Count)
system.atomicCpu0.exec_context.thread_0.numIntRegWrites            0                       # Number of times the integer registers were written (Count)
system.atomicCpu0.exec_context.thread_0.numFpRegReads            0                       # Number of times the floating registers were read (Count)
system.atomicCpu0.exec_context.thread_0.numFpRegWrites            0                       # Number of times the floating registers were written (Count)
system.atomicCpu0.exec_context.thread_0.numVecRegReads            0                       # Number of times the vector registers were read (Count)
system.atomicCpu0.exec_context.thread_0.numVecRegWrites            0                       # Number of times the vector registers were written (Count)
system.atomicCpu0.exec_context.thread_0.numVecPredRegReads            0                       # Number of times the predicate registers were read (Count)
system.atomicCpu0.exec_context.thread_0.numVecPredRegWrites            0                       # Number of times the predicate registers were written (Count)
system.atomicCpu0.exec_context.thread_0.numMiscRegReads            0                       # Number of times the Misc registers were read (Count)
system.atomicCpu0.exec_context.thread_0.numMiscRegWrites            0                       # Number of times the Misc registers were written (Count)
system.atomicCpu0.exec_context.thread_0.numMemRefs            0                       # Number of memory refs (Count)
system.atomicCpu0.exec_context.thread_0.numLoadInsts            0                       # Number of load instructions (Count)
system.atomicCpu0.exec_context.thread_0.numStoreInsts            0                       # Number of store instructions (Count)
system.atomicCpu0.exec_context.thread_0.numIdleCycles            0                       # Number of idle cycles (Cycle)
system.atomicCpu0.exec_context.thread_0.numBusyCycles            0                       # Number of busy cycles (Cycle)
system.atomicCpu0.exec_context.thread_0.notIdleFraction            0                       # Percentage of non-idle cycles (Ratio)
system.atomicCpu0.exec_context.thread_0.idleFraction            1                       # Percentage of idle cycles (Ratio)
system.atomicCpu0.exec_context.thread_0.statExecutedInstType::No_OpClass            0                       # Class of executed instruction. (Count)
system.atomicCpu0.exec_context.thread_0.statExecutedInstType::IntAlu            0                       # Class of executed instruction. (Count)
system.atomicCpu0.exec_context.thread_0.statExecutedInstType::IntMult            0                       # Class of executed instruction. (Count)
system.atomicCpu0.exec_context.thread_0.statExecutedInstType::IntDiv            0                       # Class of executed instruction. (Count)
system.atomicCpu0.exec_context.thread_0.statExecutedInstType::FloatAdd            0                       # Class of executed instruction. (Count)
system.atomicCpu0.exec_context.thread_0.statExecutedInstType::FloatCmp            0                       # Class of executed instruction. (Count)
system.atomicCpu0.exec_context.thread_0.statExecutedInstType::FloatCvt            0                       # Class of executed instruction. (Count)
system.atomicCpu0.exec_context.thread_0.statExecutedInstType::FloatMult            0                       # Class of executed instruction. (Count)
system.atomicCpu0.exec_context.thread_0.statExecutedInstType::FloatMultAcc            0                       # Class of executed instruction. (Count)
system.atomicCpu0.exec_context.thread_0.statExecutedInstType::FloatDiv            0                       # Class of executed instruction. (Count)
system.atomicCpu0.exec_context.thread_0.statExecutedInstType::FloatMisc            0                       # Class of executed instruction. (Count)
system.atomicCpu0.exec_context.thread_0.statExecutedInstType::FloatSqrt            0                       # Class of executed instruction. (Count)
system.atomicCpu0.exec_context.thread_0.statExecutedInstType::SimdAdd            0                       # Class of executed instruction. (Count)
system.atomicCpu0.exec_context.thread_0.statExecutedInstType::SimdAddAcc            0                       # Class of executed instruction. (Count)
system.atomicCpu0.exec_context.thread_0.statExecutedInstType::SimdAlu            0                       # Class of executed instruction. (Count)
system.atomicCpu0.exec_context.thread_0.statExecutedInstType::SimdCmp            0                       # Class of executed instruction. (Count)
system.atomicCpu0.exec_context.thread_0.statExecutedInstType::SimdCvt            0                       # Class of executed instruction. (Count)
system.atomicCpu0.exec_context.thread_0.statExecutedInstType::SimdMisc            0                       # Class of executed instruction. (Count)
system.atomicCpu0.exec_context.thread_0.statExecutedInstType::SimdMult            0                       # Class of executed instruction. (Count)
system.atomicCpu0.exec_context.thread_0.statExecutedInstType::SimdMultAcc            0                       # Class of executed instruction. (Count)
system.atomicCpu0.exec_context.thread_0.statExecutedInstType::SimdShift            0                       # Class of executed instruction. (Count)
system.atomicCpu0.exec_context.thread_0.statExecutedInstType::SimdShiftAcc            0                       # Class of executed instruction. (Count)
system.atomicCpu0.exec_context.thread_0.statExecutedInstType::SimdDiv            0                       # Class of executed instruction. (Count)
system.atomicCpu0.exec_context.thread_0.statExecutedInstType::SimdSqrt            0                       # Class of executed instruction. (Count)
system.atomicCpu0.exec_context.thread_0.statExecutedInstType::SimdFloatAdd            0                       # Class of executed instruction. (Count)
system.atomicCpu0.exec_context.thread_0.statExecutedInstType::SimdFloatAlu            0                       # Class of executed instruction. (Count)
system.atomicCpu0.exec_context.thread_0.statExecutedInstType::SimdFloatCmp            0                       # Class of executed instruction. (Count)
system.atomicCpu0.exec_context.thread_0.statExecutedInstType::SimdFloatCvt            0                       # Class of executed instruction. (Count)
system.atomicCpu0.exec_context.thread_0.statExecutedInstType::SimdFloatDiv            0                       # Class of executed instruction. (Count)
system.atomicCpu0.exec_context.thread_0.statExecutedInstType::SimdFloatMisc            0                       # Class of executed instruction. (Count)
system.atomicCpu0.exec_context.thread_0.statExecutedInstType::SimdFloatMult            0                       # Class of executed instruction. (Count)
system.atomicCpu0.exec_context.thread_0.statExecutedInstType::SimdFloatMultAcc            0                       # Class of executed instruction. (Count)
system.atomicCpu0.exec_context.thread_0.statExecutedInstType::SimdFloatSqrt            0                       # Class of executed instruction. (Count)
system.atomicCpu0.exec_context.thread_0.statExecutedInstType::SimdReduceAdd            0                       # Class of executed instruction. (Count)
system.atomicCpu0.exec_context.thread_0.statExecutedInstType::SimdReduceAlu            0                       # Class of executed instruction. (Count)
system.atomicCpu0.exec_context.thread_0.statExecutedInstType::SimdReduceCmp            0                       # Class of executed instruction. (Count)
system.atomicCpu0.exec_context.thread_0.statExecutedInstType::SimdFloatReduceAdd            0                       # Class of executed instruction. (Count)
system.atomicCpu0.exec_context.thread_0.statExecutedInstType::SimdFloatReduceCmp            0                       # Class of executed instruction. (Count)
system.atomicCpu0.exec_context.thread_0.statExecutedInstType::SimdAes            0                       # Class of executed instruction. (Count)
system.atomicCpu0.exec_context.thread_0.statExecutedInstType::SimdAesMix            0                       # Class of executed instruction. (Count)
system.atomicCpu0.exec_context.thread_0.statExecutedInstType::SimdSha1Hash            0                       # Class of executed instruction. (Count)
system.atomicCpu0.exec_context.thread_0.statExecutedInstType::SimdSha1Hash2            0                       # Class of executed instruction. (Count)
system.atomicCpu0.exec_context.thread_0.statExecutedInstType::SimdSha256Hash            0                       # Class of executed instruction. (Count)
system.atomicCpu0.exec_context.thread_0.statExecutedInstType::SimdSha256Hash2            0                       # Class of executed instruction. (Count)
system.atomicCpu0.exec_context.thread_0.statExecutedInstType::SimdShaSigma2            0                       # Class of executed instruction. (Count)
system.atomicCpu0.exec_context.thread_0.statExecutedInstType::SimdShaSigma3            0                       # Class of executed instruction. (Count)
system.atomicCpu0.exec_context.thread_0.statExecutedInstType::SimdPredAlu            0                       # Class of executed instruction. (Count)
system.atomicCpu0.exec_context.thread_0.statExecutedInstType::MemRead            0                       # Class of executed instruction. (Count)
system.atomicCpu0.exec_context.thread_0.statExecutedInstType::MemWrite            0                       # Class of executed instruction. (Count)
system.atomicCpu0.exec_context.thread_0.statExecutedInstType::FloatMemRead            0                       # Class of executed instruction. (Count)
system.atomicCpu0.exec_context.thread_0.statExecutedInstType::FloatMemWrite            0                       # Class of executed instruction. (Count)
system.atomicCpu0.exec_context.thread_0.statExecutedInstType::IprAccess            0                       # Class of executed instruction. (Count)
system.atomicCpu0.exec_context.thread_0.statExecutedInstType::InstPrefetch            0                       # Class of executed instruction. (Count)
system.atomicCpu0.exec_context.thread_0.statExecutedInstType::total            0                       # Class of executed instruction. (Count)
system.atomicCpu0.mmu.dtb.rdAccesses                0                       # TLB accesses on read requests (Count)
system.atomicCpu0.mmu.dtb.wrAccesses                0                       # TLB accesses on write requests (Count)
system.atomicCpu0.mmu.dtb.rdMisses                  0                       # TLB misses on read requests (Count)
system.atomicCpu0.mmu.dtb.wrMisses                  0                       # TLB misses on write requests (Count)
system.atomicCpu0.mmu.dtb.walker.power_state.pwrStateResidencyTicks::UNDEFINED 22143406829750                       # Cumulative time (in ticks) in various power states (Tick)
system.atomicCpu0.mmu.itb.rdAccesses                0                       # TLB accesses on read requests (Count)
system.atomicCpu0.mmu.itb.wrAccesses                0                       # TLB accesses on write requests (Count)
system.atomicCpu0.mmu.itb.rdMisses                  0                       # TLB misses on read requests (Count)
system.atomicCpu0.mmu.itb.wrMisses                  0                       # TLB misses on write requests (Count)
system.atomicCpu0.mmu.itb.walker.power_state.pwrStateResidencyTicks::UNDEFINED 22143406829750                       # Cumulative time (in ticks) in various power states (Tick)
system.atomicCpu0.power_state.pwrStateResidencyTicks::OFF 22143406829750                       # Cumulative time (in ticks) in various power states (Tick)
system.atomicCpu0.thread_0.numInsts                 0                       # Number of Instructions committed (Count)
system.atomicCpu0.thread_0.numOps                   0                       # Number of Ops committed (Count)
system.atomicCpu0.thread_0.numMemRefs               0                       # Number of Memory References (Count)
system.atomicCpu1.numCycles                         0                       # Number of cpu cycles simulated (Cycle)
system.atomicCpu1.numWorkItemsStarted               0                       # Number of work items this cpu started (Count)
system.atomicCpu1.numWorkItemsCompleted             0                       # Number of work items this cpu completed (Count)
system.atomicCpu1.exec_context.thread_0.numInsts            0                       # Number of instructions committed (Count)
system.atomicCpu1.exec_context.thread_0.numOps            0                       # Number of ops (including micro ops) committed (Count)
system.atomicCpu1.exec_context.thread_0.numIntAluAccesses            0                       # Number of integer alu accesses (Count)
system.atomicCpu1.exec_context.thread_0.numFpAluAccesses            0                       # Number of float alu accesses (Count)
system.atomicCpu1.exec_context.thread_0.numVecAluAccesses            0                       # Number of vector alu accesses (Count)
system.atomicCpu1.exec_context.thread_0.numCallsReturns            0                       # Number of times a function call or return occured (Count)
system.atomicCpu1.exec_context.thread_0.numCondCtrlInsts            0                       # Number of instructions that are conditional controls (Count)
system.atomicCpu1.exec_context.thread_0.numIntInsts            0                       # Number of integer instructions (Count)
system.atomicCpu1.exec_context.thread_0.numFpInsts            0                       # Number of float instructions (Count)
system.atomicCpu1.exec_context.thread_0.numVecInsts            0                       # Number of vector instructions (Count)
system.atomicCpu1.exec_context.thread_0.numIntRegReads            0                       # Number of times the integer registers were read (Count)
system.atomicCpu1.exec_context.thread_0.numIntRegWrites            0                       # Number of times the integer registers were written (Count)
system.atomicCpu1.exec_context.thread_0.numFpRegReads            0                       # Number of times the floating registers were read (Count)
system.atomicCpu1.exec_context.thread_0.numFpRegWrites            0                       # Number of times the floating registers were written (Count)
system.atomicCpu1.exec_context.thread_0.numVecRegReads            0                       # Number of times the vector registers were read (Count)
system.atomicCpu1.exec_context.thread_0.numVecRegWrites            0                       # Number of times the vector registers were written (Count)
system.atomicCpu1.exec_context.thread_0.numVecPredRegReads            0                       # Number of times the predicate registers were read (Count)
system.atomicCpu1.exec_context.thread_0.numVecPredRegWrites            0                       # Number of times the predicate registers were written (Count)
system.atomicCpu1.exec_context.thread_0.numMiscRegReads            0                       # Number of times the Misc registers were read (Count)
system.atomicCpu1.exec_context.thread_0.numMiscRegWrites            0                       # Number of times the Misc registers were written (Count)
system.atomicCpu1.exec_context.thread_0.numMemRefs            0                       # Number of memory refs (Count)
system.atomicCpu1.exec_context.thread_0.numLoadInsts            0                       # Number of load instructions (Count)
system.atomicCpu1.exec_context.thread_0.numStoreInsts            0                       # Number of store instructions (Count)
system.atomicCpu1.exec_context.thread_0.numIdleCycles            0                       # Number of idle cycles (Cycle)
system.atomicCpu1.exec_context.thread_0.numBusyCycles            0                       # Number of busy cycles (Cycle)
system.atomicCpu1.exec_context.thread_0.notIdleFraction            0                       # Percentage of non-idle cycles (Ratio)
system.atomicCpu1.exec_context.thread_0.idleFraction            1                       # Percentage of idle cycles (Ratio)
system.atomicCpu1.exec_context.thread_0.statExecutedInstType::No_OpClass            0                       # Class of executed instruction. (Count)
system.atomicCpu1.exec_context.thread_0.statExecutedInstType::IntAlu            0                       # Class of executed instruction. (Count)
system.atomicCpu1.exec_context.thread_0.statExecutedInstType::IntMult            0                       # Class of executed instruction. (Count)
system.atomicCpu1.exec_context.thread_0.statExecutedInstType::IntDiv            0                       # Class of executed instruction. (Count)
system.atomicCpu1.exec_context.thread_0.statExecutedInstType::FloatAdd            0                       # Class of executed instruction. (Count)
system.atomicCpu1.exec_context.thread_0.statExecutedInstType::FloatCmp            0                       # Class of executed instruction. (Count)
system.atomicCpu1.exec_context.thread_0.statExecutedInstType::FloatCvt            0                       # Class of executed instruction. (Count)
system.atomicCpu1.exec_context.thread_0.statExecutedInstType::FloatMult            0                       # Class of executed instruction. (Count)
system.atomicCpu1.exec_context.thread_0.statExecutedInstType::FloatMultAcc            0                       # Class of executed instruction. (Count)
system.atomicCpu1.exec_context.thread_0.statExecutedInstType::FloatDiv            0                       # Class of executed instruction. (Count)
system.atomicCpu1.exec_context.thread_0.statExecutedInstType::FloatMisc            0                       # Class of executed instruction. (Count)
system.atomicCpu1.exec_context.thread_0.statExecutedInstType::FloatSqrt            0                       # Class of executed instruction. (Count)
system.atomicCpu1.exec_context.thread_0.statExecutedInstType::SimdAdd            0                       # Class of executed instruction. (Count)
system.atomicCpu1.exec_context.thread_0.statExecutedInstType::SimdAddAcc            0                       # Class of executed instruction. (Count)
system.atomicCpu1.exec_context.thread_0.statExecutedInstType::SimdAlu            0                       # Class of executed instruction. (Count)
system.atomicCpu1.exec_context.thread_0.statExecutedInstType::SimdCmp            0                       # Class of executed instruction. (Count)
system.atomicCpu1.exec_context.thread_0.statExecutedInstType::SimdCvt            0                       # Class of executed instruction. (Count)
system.atomicCpu1.exec_context.thread_0.statExecutedInstType::SimdMisc            0                       # Class of executed instruction. (Count)
system.atomicCpu1.exec_context.thread_0.statExecutedInstType::SimdMult            0                       # Class of executed instruction. (Count)
system.atomicCpu1.exec_context.thread_0.statExecutedInstType::SimdMultAcc            0                       # Class of executed instruction. (Count)
system.atomicCpu1.exec_context.thread_0.statExecutedInstType::SimdShift            0                       # Class of executed instruction. (Count)
system.atomicCpu1.exec_context.thread_0.statExecutedInstType::SimdShiftAcc            0                       # Class of executed instruction. (Count)
system.atomicCpu1.exec_context.thread_0.statExecutedInstType::SimdDiv            0                       # Class of executed instruction. (Count)
system.atomicCpu1.exec_context.thread_0.statExecutedInstType::SimdSqrt            0                       # Class of executed instruction. (Count)
system.atomicCpu1.exec_context.thread_0.statExecutedInstType::SimdFloatAdd            0                       # Class of executed instruction. (Count)
system.atomicCpu1.exec_context.thread_0.statExecutedInstType::SimdFloatAlu            0                       # Class of executed instruction. (Count)
system.atomicCpu1.exec_context.thread_0.statExecutedInstType::SimdFloatCmp            0                       # Class of executed instruction. (Count)
system.atomicCpu1.exec_context.thread_0.statExecutedInstType::SimdFloatCvt            0                       # Class of executed instruction. (Count)
system.atomicCpu1.exec_context.thread_0.statExecutedInstType::SimdFloatDiv            0                       # Class of executed instruction. (Count)
system.atomicCpu1.exec_context.thread_0.statExecutedInstType::SimdFloatMisc            0                       # Class of executed instruction. (Count)
system.atomicCpu1.exec_context.thread_0.statExecutedInstType::SimdFloatMult            0                       # Class of executed instruction. (Count)
system.atomicCpu1.exec_context.thread_0.statExecutedInstType::SimdFloatMultAcc            0                       # Class of executed instruction. (Count)
system.atomicCpu1.exec_context.thread_0.statExecutedInstType::SimdFloatSqrt            0                       # Class of executed instruction. (Count)
system.atomicCpu1.exec_context.thread_0.statExecutedInstType::SimdReduceAdd            0                       # Class of executed instruction. (Count)
system.atomicCpu1.exec_context.thread_0.statExecutedInstType::SimdReduceAlu            0                       # Class of executed instruction. (Count)
system.atomicCpu1.exec_context.thread_0.statExecutedInstType::SimdReduceCmp            0                       # Class of executed instruction. (Count)
system.atomicCpu1.exec_context.thread_0.statExecutedInstType::SimdFloatReduceAdd            0                       # Class of executed instruction. (Count)
system.atomicCpu1.exec_context.thread_0.statExecutedInstType::SimdFloatReduceCmp            0                       # Class of executed instruction. (Count)
system.atomicCpu1.exec_context.thread_0.statExecutedInstType::SimdAes            0                       # Class of executed instruction. (Count)
system.atomicCpu1.exec_context.thread_0.statExecutedInstType::SimdAesMix            0                       # Class of executed instruction. (Count)
system.atomicCpu1.exec_context.thread_0.statExecutedInstType::SimdSha1Hash            0                       # Class of executed instruction. (Count)
system.atomicCpu1.exec_context.thread_0.statExecutedInstType::SimdSha1Hash2            0                       # Class of executed instruction. (Count)
system.atomicCpu1.exec_context.thread_0.statExecutedInstType::SimdSha256Hash            0                       # Class of executed instruction. (Count)
system.atomicCpu1.exec_context.thread_0.statExecutedInstType::SimdSha256Hash2            0                       # Class of executed instruction. (Count)
system.atomicCpu1.exec_context.thread_0.statExecutedInstType::SimdShaSigma2            0                       # Class of executed instruction. (Count)
system.atomicCpu1.exec_context.thread_0.statExecutedInstType::SimdShaSigma3            0                       # Class of executed instruction. (Count)
system.atomicCpu1.exec_context.thread_0.statExecutedInstType::SimdPredAlu            0                       # Class of executed instruction. (Count)
system.atomicCpu1.exec_context.thread_0.statExecutedInstType::MemRead            0                       # Class of executed instruction. (Count)
system.atomicCpu1.exec_context.thread_0.statExecutedInstType::MemWrite            0                       # Class of executed instruction. (Count)
system.atomicCpu1.exec_context.thread_0.statExecutedInstType::FloatMemRead            0                       # Class of executed instruction. (Count)
system.atomicCpu1.exec_context.thread_0.statExecutedInstType::FloatMemWrite            0                       # Class of executed instruction. (Count)
system.atomicCpu1.exec_context.thread_0.statExecutedInstType::IprAccess            0                       # Class of executed instruction. (Count)
system.atomicCpu1.exec_context.thread_0.statExecutedInstType::InstPrefetch            0                       # Class of executed instruction. (Count)
system.atomicCpu1.exec_context.thread_0.statExecutedInstType::total            0                       # Class of executed instruction. (Count)
system.atomicCpu1.mmu.dtb.rdAccesses                0                       # TLB accesses on read requests (Count)
system.atomicCpu1.mmu.dtb.wrAccesses                0                       # TLB accesses on write requests (Count)
system.atomicCpu1.mmu.dtb.rdMisses                  0                       # TLB misses on read requests (Count)
system.atomicCpu1.mmu.dtb.wrMisses                  0                       # TLB misses on write requests (Count)
system.atomicCpu1.mmu.dtb.walker.power_state.pwrStateResidencyTicks::UNDEFINED 22143406829750                       # Cumulative time (in ticks) in various power states (Tick)
system.atomicCpu1.mmu.itb.rdAccesses                0                       # TLB accesses on read requests (Count)
system.atomicCpu1.mmu.itb.wrAccesses                0                       # TLB accesses on write requests (Count)
system.atomicCpu1.mmu.itb.rdMisses                  0                       # TLB misses on read requests (Count)
system.atomicCpu1.mmu.itb.wrMisses                  0                       # TLB misses on write requests (Count)
system.atomicCpu1.mmu.itb.walker.power_state.pwrStateResidencyTicks::UNDEFINED 22143406829750                       # Cumulative time (in ticks) in various power states (Tick)
system.atomicCpu1.power_state.pwrStateResidencyTicks::OFF 22143406829750                       # Cumulative time (in ticks) in various power states (Tick)
system.atomicCpu1.thread_0.numInsts                 0                       # Number of Instructions committed (Count)
system.atomicCpu1.thread_0.numOps                   0                       # Number of Ops committed (Count)
system.atomicCpu1.thread_0.numMemRefs               0                       # Number of Memory References (Count)
system.caches.delayHistogram::bucket_size            4                       # delay histogram for all message (Unspecified)
system.caches.delayHistogram::max_bucket           39                       # delay histogram for all message (Unspecified)
system.caches.delayHistogram::samples       155304391                       # delay histogram for all message (Unspecified)
system.caches.delayHistogram::mean           0.824379                       # delay histogram for all message (Unspecified)
system.caches.delayHistogram::stdev          2.444975                       # delay histogram for all message (Unspecified)
system.caches.delayHistogram             |   139394558     89.76%     89.76% |       12898      0.01%     89.76% |    15862155     10.21%     99.98% |        1904      0.00%     99.98% |       32874      0.02%    100.00% |           1      0.00%    100.00% |           1      0.00%    100.00% |           0      0.00%    100.00% |           0      0.00%    100.00% |           0      0.00%    100.00% # delay histogram for all message (Unspecified)
system.caches.delayHistogram::total         155304391                       # delay histogram for all message (Unspecified)
system.caches.m_outstandReqHistSeqr::bucket_size            1                       (Unspecified)
system.caches.m_outstandReqHistSeqr::max_bucket            9                       (Unspecified)
system.caches.m_outstandReqHistSeqr::samples  19765739605                       (Unspecified)
system.caches.m_outstandReqHistSeqr::mean            1                       (Unspecified)
system.caches.m_outstandReqHistSeqr::gmean            1                       (Unspecified)
system.caches.m_outstandReqHistSeqr      |           0      0.00%      0.00% | 19765739605    100.00%    100.00% |           0      0.00%    100.00% |           0      0.00%    100.00% |           0      0.00%    100.00% |           0      0.00%    100.00% |           0      0.00%    100.00% |           0      0.00%    100.00% |           0      0.00%    100.00% |           0      0.00%    100.00% (Unspecified)
system.caches.m_outstandReqHistSeqr::total  19765739605                       (Unspecified)
system.caches.m_latencyHistSeqr::bucket_size          512                       (Unspecified)
system.caches.m_latencyHistSeqr::max_bucket         5119                       (Unspecified)
system.caches.m_latencyHistSeqr::samples  19765739605                       (Unspecified)
system.caches.m_latencyHistSeqr::mean        1.023444                       (Unspecified)
system.caches.m_latencyHistSeqr::gmean       1.004319                       (Unspecified)
system.caches.m_latencyHistSeqr::stdev       1.001369                       (Unspecified)
system.caches.m_latencyHistSeqr          | 19765734279    100.00%    100.00% |        3904      0.00%    100.00% |         543      0.00%    100.00% |         854      0.00%    100.00% |          21      0.00%    100.00% |           4      0.00%    100.00% |           0      0.00%    100.00% |           0      0.00%    100.00% |           0      0.00%    100.00% |           0      0.00%    100.00% (Unspecified)
system.caches.m_latencyHistSeqr::total    19765739605                       (Unspecified)
system.caches.m_hitLatencyHistSeqr::bucket_size            1                       (Unspecified)
system.caches.m_hitLatencyHistSeqr::max_bucket            9                       (Unspecified)
system.caches.m_hitLatencyHistSeqr::samples  19734256870                       (Unspecified)
system.caches.m_hitLatencyHistSeqr::mean            1                       (Unspecified)
system.caches.m_hitLatencyHistSeqr::gmean            1                       (Unspecified)
system.caches.m_hitLatencyHistSeqr       |           0      0.00%      0.00% | 19734256870    100.00%    100.00% |           0      0.00%    100.00% |           0      0.00%    100.00% |           0      0.00%    100.00% |           0      0.00%    100.00% |           0      0.00%    100.00% |           0      0.00%    100.00% |           0      0.00%    100.00% |           0      0.00%    100.00% (Unspecified)
system.caches.m_hitLatencyHistSeqr::total  19734256870                       (Unspecified)
system.caches.m_missLatencyHistSeqr::bucket_size          512                       (Unspecified)
system.caches.m_missLatencyHistSeqr::max_bucket         5119                       (Unspecified)
system.caches.m_missLatencyHistSeqr::samples     31482735                       (Unspecified)
system.caches.m_missLatencyHistSeqr::mean    15.718758                       (Unspecified)
system.caches.m_missLatencyHistSeqr::gmean    14.966160                       (Unspecified)
system.caches.m_missLatencyHistSeqr::stdev    20.328599                       (Unspecified)
system.caches.m_missLatencyHistSeqr      |    31477409     99.98%     99.98% |        3904      0.01%    100.00% |         543      0.00%    100.00% |         854      0.00%    100.00% |          21      0.00%    100.00% |           4      0.00%    100.00% |           0      0.00%    100.00% |           0      0.00%    100.00% |           0      0.00%    100.00% |           0      0.00%    100.00% (Unspecified)
system.caches.m_missLatencyHistSeqr::total     31482735                       (Unspecified)
system.caches.delayVCHist.vnet_0::bucket_size            4                       # delay histogram for vnet_0 (Unspecified)
system.caches.delayVCHist.vnet_0::max_bucket           39                       # delay histogram for vnet_0 (Unspecified)
system.caches.delayVCHist.vnet_0::samples     92954216                       # delay histogram for vnet_0 (Unspecified)
system.caches.delayVCHist.vnet_0::mean       1.377337                       # delay histogram for vnet_0 (Unspecified)
system.caches.delayVCHist.vnet_0::stdev      3.037436                       # delay histogram for vnet_0 (Unspecified)
system.caches.delayVCHist.vnet_0         |    77044429     82.88%     82.88% |       12868      0.01%     82.90% |    15862143     17.06%     99.96% |        1902      0.00%     99.96% |       32873      0.04%    100.00% |           0      0.00%    100.00% |           1      0.00%    100.00% |           0      0.00%    100.00% |           0      0.00%    100.00% |           0      0.00%    100.00% # delay histogram for vnet_0 (Unspecified)
system.caches.delayVCHist.vnet_0::total      92954216                       # delay histogram for vnet_0 (Unspecified)
system.caches.delayVCHist.vnet_1::bucket_size            4                       # delay histogram for vnet_1 (Unspecified)
system.caches.delayVCHist.vnet_1::max_bucket           39                       # delay histogram for vnet_1 (Unspecified)
system.caches.delayVCHist.vnet_1::samples     62288628                       # delay histogram for vnet_1 (Unspecified)
system.caches.delayVCHist.vnet_1::mean       0.000006                       # delay histogram for vnet_1 (Unspecified)
system.caches.delayVCHist.vnet_1::stdev      0.006757                       # delay histogram for vnet_1 (Unspecified)
system.caches.delayVCHist.vnet_1         |    62288582    100.00%    100.00% |          30      0.00%    100.00% |          12      0.00%    100.00% |           2      0.00%    100.00% |           1      0.00%    100.00% |           1      0.00%    100.00% |           0      0.00%    100.00% |           0      0.00%    100.00% |           0      0.00%    100.00% |           0      0.00%    100.00% # delay histogram for vnet_1 (Unspecified)
system.caches.delayVCHist.vnet_1::total      62288628                       # delay histogram for vnet_1 (Unspecified)
system.caches.delayVCHist.vnet_2::bucket_size            1                       # delay histogram for vnet_2 (Unspecified)
system.caches.delayVCHist.vnet_2::max_bucket            9                       # delay histogram for vnet_2 (Unspecified)
system.caches.delayVCHist.vnet_2::samples        61547                       # delay histogram for vnet_2 (Unspecified)
system.caches.delayVCHist.vnet_2::mean       0.000390                       # delay histogram for vnet_2 (Unspecified)
system.caches.delayVCHist.vnet_2::stdev      0.027924                       # delay histogram for vnet_2 (Unspecified)
system.caches.delayVCHist.vnet_2         |       61535     99.98%     99.98% |           0      0.00%     99.98% |          12      0.02%    100.00% |           0      0.00%    100.00% |           0      0.00%    100.00% |           0      0.00%    100.00% |           0      0.00%    100.00% |           0      0.00%    100.00% |           0      0.00%    100.00% |           0      0.00%    100.00% # delay histogram for vnet_2 (Unspecified)
system.caches.delayVCHist.vnet_2::total         61547                       # delay histogram for vnet_2 (Unspecified)
system.caches.L1Cache_Controller.Load    |  1134532765     50.01%     50.01% |  1133925014     49.99%    100.00% (Unspecified)
system.caches.L1Cache_Controller.Load::total   2268457779                       (Unspecified)
system.caches.L1Cache_Controller.Ifetch  |18446744073385879552     50.00%     50.00% |18446744073386752000     50.00%    100.00% (Unspecified)
system.caches.L1Cache_Controller.Ifetch::total 36893488146772631552                       (Unspecified)
system.caches.L1Cache_Controller.Store   |   482367730     50.04%     50.04% |   481516423     49.96%    100.00% (Unspecified)
system.caches.L1Cache_Controller.Store::total    963884153                       (Unspecified)
system.caches.L1Cache_Controller.Inv     |        2506      8.02%      8.02% |       28734     91.98%    100.00% (Unspecified)
system.caches.L1Cache_Controller.Inv::total        31240                       (Unspecified)
system.caches.L1Cache_Controller.L1_Replacement |    15744435     50.12%     50.12% |    15666801     49.88%    100.00% (Unspecified)
system.caches.L1Cache_Controller.L1_Replacement::total     31411236                       (Unspecified)
system.caches.L1Cache_Controller.Fwd_GETX |          73      9.28%      9.28% |         714     90.72%    100.00% (Unspecified)
system.caches.L1Cache_Controller.Fwd_GETX::total          787                       (Unspecified)
system.caches.L1Cache_Controller.Fwd_GETS |       28989     98.20%     98.20% |         531      1.80%    100.00% (Unspecified)
system.caches.L1Cache_Controller.Fwd_GETS::total        29520                       (Unspecified)
system.caches.L1Cache_Controller.Data    |        1626     99.57%     99.57% |           7      0.43%    100.00% (Unspecified)
system.caches.L1Cache_Controller.Data::total         1633                       (Unspecified)
system.caches.L1Cache_Controller.Data_Exclusive |     7520308     49.95%     49.95% |     7535071     50.05%    100.00% (Unspecified)
system.caches.L1Cache_Controller.Data_Exclusive::total     15055379                       (Unspecified)
system.caches.L1Cache_Controller.DataS_fromL1 |         531      1.80%      1.80% |       28989     98.20%    100.00% (Unspecified)
system.caches.L1Cache_Controller.DataS_fromL1::total        29520                       (Unspecified)
system.caches.L1Cache_Controller.Data_all_Acks |     8230741     50.28%     50.28% |     8138032     49.72%    100.00% (Unspecified)
system.caches.L1Cache_Controller.Data_all_Acks::total     16368773                       (Unspecified)
system.caches.L1Cache_Controller.Ack     |       27108     98.83%     98.83% |         322      1.17%    100.00% (Unspecified)
system.caches.L1Cache_Controller.Ack::total        27430                       (Unspecified)
system.caches.L1Cache_Controller.Ack_all |       28734     98.87%     98.87% |         329      1.13%    100.00% (Unspecified)
system.caches.L1Cache_Controller.Ack_all::total        29063                       (Unspecified)
system.caches.L1Cache_Controller.WB_Ack  |    15344328     49.99%     49.99% |    15352518     50.01%    100.00% (Unspecified)
system.caches.L1Cache_Controller.WB_Ack::total     30696846                       (Unspecified)
system.caches.L1Cache_Controller.NP.Load |     7673961     49.95%     49.95% |     7689644     50.05%    100.00% (Unspecified)
system.caches.L1Cache_Controller.NP.Load::total     15363605                       (Unspecified)
system.caches.L1Cache_Controller.NP.Ifetch |      243159     60.37%     60.37% |      159616     39.63%    100.00% (Unspecified)
system.caches.L1Cache_Controller.NP.Ifetch::total       402775                       (Unspecified)
system.caches.L1Cache_Controller.NP.Store |     7836014     50.03%     50.03% |     7826245     49.97%    100.00% (Unspecified)
system.caches.L1Cache_Controller.NP.Store::total     15662259                       (Unspecified)
system.caches.L1Cache_Controller.NP.Inv  |          33      2.62%      2.62% |        1228     97.38%    100.00% (Unspecified)
system.caches.L1Cache_Controller.NP.Inv::total         1261                       (Unspecified)
system.caches.L1Cache_Controller.I.Load  |          46      0.17%      0.17% |       26573     99.83%    100.00% (Unspecified)
system.caches.L1Cache_Controller.I.Load::total        26619                       (Unspecified)
system.caches.L1Cache_Controller.I.Store |          26     55.32%     55.32% |          21     44.68%    100.00% (Unspecified)
system.caches.L1Cache_Controller.I.Store::total           47                       (Unspecified)
system.caches.L1Cache_Controller.I.L1_Replacement |        2469     60.32%     60.32% |        1624     39.68%    100.00% (Unspecified)
system.caches.L1Cache_Controller.I.L1_Replacement::total         4093                       (Unspecified)
system.caches.L1Cache_Controller.S.Load  |   528099462     49.98%     49.98% |   528535421     50.02%    100.00% (Unspecified)
system.caches.L1Cache_Controller.S.Load::total   1056634883                       (Unspecified)
system.caches.L1Cache_Controller.S.Ifetch |18446744073385635840     50.00%     50.00% |18446744073386594304     50.00%    100.00% (Unspecified)
system.caches.L1Cache_Controller.S.Ifetch::total 36893488146772230144                       (Unspecified)
system.caches.L1Cache_Controller.S.Store |       27108     98.83%     98.83% |         322      1.17%    100.00% (Unspecified)
system.caches.L1Cache_Controller.S.Store::total        27430                       (Unspecified)
system.caches.L1Cache_Controller.S.Inv   |         296      1.06%      1.06% |       27504     98.94%    100.00% (Unspecified)
system.caches.L1Cache_Controller.S.Inv::total        27800                       (Unspecified)
system.caches.L1Cache_Controller.S.L1_Replacement |      397638     55.98%     55.98% |      312659     44.02%    100.00% (Unspecified)
system.caches.L1Cache_Controller.S.L1_Replacement::total       710297                       (Unspecified)
system.caches.L1Cache_Controller.E.Load  |   102610230     50.06%     50.06% |   102345847     49.94%    100.00% (Unspecified)
system.caches.L1Cache_Controller.E.Load::total    204956077                       (Unspecified)
system.caches.L1Cache_Controller.E.Store |       16776     51.55%     51.55% |       15768     48.45%    100.00% (Unspecified)
system.caches.L1Cache_Controller.E.Store::total        32544                       (Unspecified)
system.caches.L1Cache_Controller.E.Inv   |        2043    100.00%    100.00% |           0      0.00%    100.00% (Unspecified)
system.caches.L1Cache_Controller.E.Inv::total         2043                       (Unspecified)
system.caches.L1Cache_Controller.E.L1_Replacement |     7495788     49.95%     49.95% |     7511216     50.05%    100.00% (Unspecified)
system.caches.L1Cache_Controller.E.L1_Replacement::total     15007004                       (Unspecified)
system.caches.L1Cache_Controller.E.Fwd_GETX |           1      0.15%      0.15% |         680     99.85%    100.00% (Unspecified)
system.caches.L1Cache_Controller.E.Fwd_GETX::total          681                       (Unspecified)
system.caches.L1Cache_Controller.E.Fwd_GETS |         615     65.85%     65.85% |         319     34.15%    100.00% (Unspecified)
system.caches.L1Cache_Controller.E.Fwd_GETS::total          934                       (Unspecified)
system.caches.L1Cache_Controller.M.Load  |   496149066     50.04%     50.04% |   495327529     49.96%    100.00% (Unspecified)
system.caches.L1Cache_Controller.M.Load::total    991476595                       (Unspecified)
system.caches.L1Cache_Controller.M.Store |   474487806     50.04%     50.04% |   473674067     49.96%    100.00% (Unspecified)
system.caches.L1Cache_Controller.M.Store::total    948161873                       (Unspecified)
system.caches.L1Cache_Controller.M.Inv   |         134    100.00%    100.00% |           0      0.00%    100.00% (Unspecified)
system.caches.L1Cache_Controller.M.Inv::total          134                       (Unspecified)
system.caches.L1Cache_Controller.M.L1_Replacement |     7848540     50.02%     50.02% |     7841302     49.98%    100.00% (Unspecified)
system.caches.L1Cache_Controller.M.L1_Replacement::total     15689842                       (Unspecified)
system.caches.L1Cache_Controller.M.Fwd_GETX |          72     67.92%     67.92% |          34     32.08%    100.00% (Unspecified)
system.caches.L1Cache_Controller.M.Fwd_GETX::total          106                       (Unspecified)
system.caches.L1Cache_Controller.M.Fwd_GETS |       28374     99.26%     99.26% |         212      0.74%    100.00% (Unspecified)
system.caches.L1Cache_Controller.M.Fwd_GETS::total        28586                       (Unspecified)
system.caches.L1Cache_Controller.IS.Inv  |           0      0.00%      0.00% |           2    100.00%    100.00% (Unspecified)
system.caches.L1Cache_Controller.IS.Inv::total            2                       (Unspecified)
system.caches.L1Cache_Controller.IS.Data_Exclusive |     7520308     49.95%     49.95% |     7535071     50.05%    100.00% (Unspecified)
system.caches.L1Cache_Controller.IS.Data_Exclusive::total     15055379                       (Unspecified)
system.caches.L1Cache_Controller.IS.DataS_fromL1 |         531      1.80%      1.80% |       28987     98.20%    100.00% (Unspecified)
system.caches.L1Cache_Controller.IS.DataS_fromL1::total        29518                       (Unspecified)
system.caches.L1Cache_Controller.IS.Data_all_Acks |      396327     55.97%     55.97% |      311773     44.03%    100.00% (Unspecified)
system.caches.L1Cache_Controller.IS.Data_all_Acks::total       708100                       (Unspecified)
system.caches.L1Cache_Controller.IM.Data |        1626     99.57%     99.57% |           7      0.43%    100.00% (Unspecified)
system.caches.L1Cache_Controller.IM.Data::total         1633                       (Unspecified)
system.caches.L1Cache_Controller.IM.Data_all_Acks |     7834414     50.03%     50.03% |     7826259     49.97%    100.00% (Unspecified)
system.caches.L1Cache_Controller.IM.Data_all_Acks::total     15660673                       (Unspecified)
system.caches.L1Cache_Controller.SM.Ack  |       27108     98.83%     98.83% |         322      1.17%    100.00% (Unspecified)
system.caches.L1Cache_Controller.SM.Ack::total        27430                       (Unspecified)
system.caches.L1Cache_Controller.SM.Ack_all |       28734     98.87%     98.87% |         329      1.13%    100.00% (Unspecified)
system.caches.L1Cache_Controller.SM.Ack_all::total        29063                       (Unspecified)
system.caches.L1Cache_Controller.IS_I.DataS_fromL1 |           0      0.00%      0.00% |           2    100.00%    100.00% (Unspecified)
system.caches.L1Cache_Controller.IS_I.DataS_fromL1::total            2                       (Unspecified)
system.caches.L1Cache_Controller.M_I.WB_Ack |    15344328     49.99%     49.99% |    15352518     50.01%    100.00% (Unspecified)
system.caches.L1Cache_Controller.M_I.WB_Ack::total     30696846                       (Unspecified)
system.caches.Directory_Controller.Fetch        43539      0.00%      0.00% (Unspecified)
system.caches.Directory_Controller.Data          2374      0.00%      0.00% (Unspecified)
system.caches.Directory_Controller.Memory_Data        43568      0.00%      0.00% (Unspecified)
system.caches.Directory_Controller.Memory_Ack         2374      0.00%      0.00% (Unspecified)
system.caches.Directory_Controller.DMA_READ         2403      0.00%      0.00% (Unspecified)
system.caches.Directory_Controller.I.Fetch        43539      0.00%      0.00% (Unspecified)
system.caches.Directory_Controller.I.DMA_READ           29      0.00%      0.00% (Unspecified)
system.caches.Directory_Controller.ID.Memory_Data           29      0.00%      0.00% (Unspecified)
system.caches.Directory_Controller.M.DMA_READ         2374      0.00%      0.00% (Unspecified)
system.caches.Directory_Controller.IM.Memory_Data        43539      0.00%      0.00% (Unspecified)
system.caches.Directory_Controller.M_DRD.Data         2374      0.00%      0.00% (Unspecified)
system.caches.Directory_Controller.M_DRDI.Memory_Ack         2374      0.00%      0.00% (Unspecified)
system.caches.DMA_Controller.ReadRequest |        2403    100.00%    100.00% |           0      0.00%    100.00% (Unspecified)
system.caches.DMA_Controller.ReadRequest::total         2403                       (Unspecified)
system.caches.DMA_Controller.Data        |        2403    100.00%    100.00% |           0      0.00%    100.00% (Unspecified)
system.caches.DMA_Controller.Data::total         2403                       (Unspecified)
system.caches.DMA_Controller.READY.ReadRequest |        2403    100.00%    100.00% |           0      0.00%    100.00% (Unspecified)
system.caches.DMA_Controller.READY.ReadRequest::total         2403                       (Unspecified)
system.caches.DMA_Controller.BUSY_RD.Data |        2403    100.00%    100.00% |           0      0.00%    100.00% (Unspecified)
system.caches.DMA_Controller.BUSY_RD.Data::total         2403                       (Unspecified)
system.caches.L2Cache_Controller.L1_GET_INSTR |       59848     14.86%     14.86% |       63955     15.88%     30.74% |       75408     18.72%     49.46% |       21941      5.45%     54.91% |       24549      6.09%     61.00% |       46986     11.67%     72.67% |       42470     10.54%     83.21% |       67618     16.79%    100.00% (Unspecified)
system.caches.L2Cache_Controller.L1_GET_INSTR::total       402775                       (Unspecified)
system.caches.L2Cache_Controller.L1_GETS |     1935976     12.58%     12.58% |     1924807     12.50%     25.08% |     1917097     12.45%     37.53% |     1921608     12.48%     50.01% |     1922203     12.49%     62.50% |     1916521     12.45%     74.95% |     1939649     12.60%     87.54% |     1917567     12.46%    100.00% (Unspecified)
system.caches.L2Cache_Controller.L1_GETS::total     15395428                       (Unspecified)
system.caches.L2Cache_Controller.L1_GETX |     1958950     12.51%     12.51% |     1956714     12.49%     25.00% |     1955816     12.49%     37.49% |     1957699     12.50%     49.99% |     1955860     12.49%     62.48% |     1962199     12.53%     75.00% |     1960065     12.51%     87.52% |     1955003     12.48%    100.00% (Unspecified)
system.caches.L2Cache_Controller.L1_GETX::total     15662306                       (Unspecified)
system.caches.L2Cache_Controller.L1_UPGRADE |        8209     26.19%     26.19% |        4755     15.17%     41.36% |          35      0.11%     41.47% |          27      0.09%     41.56% |         106      0.34%     41.90% |          29      0.09%     41.99% |       18083     57.69%     99.68% |          99      0.32%    100.00% (Unspecified)
system.caches.L2Cache_Controller.L1_UPGRADE::total        31343                       (Unspecified)
system.caches.L2Cache_Controller.L1_PUTX |     3830958     12.48%     12.48% |     3837299     12.50%     24.98% |     3830172     12.48%     37.46% |     3839356     12.51%     49.97% |     3838045     12.50%     62.47% |     3842717     12.52%     74.99% |     3845899     12.53%     87.52% |     3832400     12.48%    100.00% (Unspecified)
system.caches.L2Cache_Controller.L1_PUTX::total     30696846                       (Unspecified)
system.caches.L2Cache_Controller.Mem_Data |        5556     12.76%     12.76% |        5435     12.48%     25.24% |        5437     12.49%     37.73% |        5458     12.54%     50.27% |        5423     12.46%     62.72% |        5426     12.46%     75.19% |        5401     12.40%     87.59% |        5403     12.41%    100.00% (Unspecified)
system.caches.L2Cache_Controller.Mem_Data::total        43539                       (Unspecified)
system.caches.L2Cache_Controller.Mem_Ack |         299     12.59%     12.59% |         297     12.51%     25.11% |         297     12.51%     37.62% |         297     12.51%     50.13% |         296     12.47%     62.59% |         296     12.47%     75.06% |         296     12.47%     87.53% |         296     12.47%    100.00% (Unspecified)
system.caches.L2Cache_Controller.Mem_Ack::total         2374                       (Unspecified)
system.caches.L2Cache_Controller.WB_Data |        9178     31.96%     31.96% |        4284     14.92%     46.87% |          56      0.19%     47.07% |          45      0.16%     47.22% |         139      0.48%     47.71% |          48      0.17%     47.88% |       14847     51.70%     99.57% |         123      0.43%    100.00% (Unspecified)
system.caches.L2Cache_Controller.WB_Data::total        28720                       (Unspecified)
system.caches.L2Cache_Controller.WB_Data_clean |          65      6.96%      6.96% |         553     59.21%     66.17% |          60      6.42%     72.59% |          49      5.25%     77.84% |          54      5.78%     83.62% |          50      5.35%     88.97% |          51      5.46%     94.43% |          52      5.57%    100.00% (Unspecified)
system.caches.L2Cache_Controller.WB_Data_clean::total          934                       (Unspecified)
system.caches.L2Cache_Controller.Ack_all |         255     12.48%     12.48% |         255     12.48%     24.96% |         258     12.63%     37.59% |         256     12.53%     50.12% |         256     12.53%     62.65% |         252     12.33%     74.99% |         255     12.48%     87.47% |         256     12.53%    100.00% (Unspecified)
system.caches.L2Cache_Controller.Ack_all::total         2043                       (Unspecified)
system.caches.L2Cache_Controller.Unblock |        9224     31.25%     31.25% |        4820     16.33%     47.57% |          99      0.34%     47.91% |          77      0.26%     48.17% |         177      0.60%     48.77% |          82      0.28%     49.05% |       14882     50.41%     99.46% |         159      0.54%    100.00% (Unspecified)
system.caches.L2Cache_Controller.Unblock::total        29520                       (Unspecified)
system.caches.L2Cache_Controller.Exclusive_Unblock |     3843106     12.50%     12.50% |     3844387     12.50%     25.00% |     3832527     12.47%     37.47% |     3841693     12.50%     49.96% |     3840475     12.49%     62.46% |     3845062     12.51%     74.96% |     3863048     12.56%     87.53% |     3834817     12.47%    100.00% (Unspecified)
system.caches.L2Cache_Controller.Exclusive_Unblock::total     30745115                       (Unspecified)
system.caches.L2Cache_Controller.MEM_Inv |         598     12.59%     12.59% |         594     12.51%     25.11% |         594     12.51%     37.62% |         594     12.51%     50.13% |         592     12.47%     62.59% |         592     12.47%     75.06% |         592     12.47%     87.53% |         592     12.47%    100.00% (Unspecified)
system.caches.L2Cache_Controller.MEM_Inv::total         4748                       (Unspecified)
system.caches.L2Cache_Controller.NP.L1_GET_INSTR |         373     12.25%     12.25% |         375     12.31%     24.56% |         388     12.74%     37.29% |         396     13.00%     50.30% |         391     12.84%     63.13% |         395     12.97%     76.10% |         368     12.08%     88.18% |         360     11.82%    100.00% (Unspecified)
system.caches.L2Cache_Controller.NP.L1_GET_INSTR::total         3046                       (Unspecified)
system.caches.L2Cache_Controller.NP.L1_GETS |        4097     12.66%     12.66% |        4060     12.54%     25.20% |        4042     12.49%     37.68% |        4072     12.58%     50.26% |        4022     12.42%     62.69% |        4037     12.47%     75.16% |        4022     12.42%     87.58% |        4020     12.42%    100.00% (Unspecified)
system.caches.L2Cache_Controller.NP.L1_GETS::total        32372                       (Unspecified)
system.caches.L2Cache_Controller.NP.L1_GETX |        1086     13.37%     13.37% |        1000     12.31%     25.69% |        1007     12.40%     38.09% |         990     12.19%     50.28% |        1010     12.44%     62.71% |         994     12.24%     74.95% |        1011     12.45%     87.40% |        1023     12.60%    100.00% (Unspecified)
system.caches.L2Cache_Controller.NP.L1_GETX::total         8121                       (Unspecified)
system.caches.L2Cache_Controller.SS.L1_GET_INSTR |       59468     14.88%     14.88% |       63569     15.91%     30.79% |       75010     18.77%     49.55% |       21539      5.39%     54.94% |       24149      6.04%     60.99% |       46577     11.65%     72.64% |       42095     10.53%     83.17% |       67250     16.83%    100.00% (Unspecified)
system.caches.L2Cache_Controller.SS.L1_GET_INSTR::total       399657                       (Unspecified)
system.caches.L2Cache_Controller.SS.L1_GETS |       50791     16.64%     16.64% |       37061     12.14%     28.78% |       40318     13.21%     41.98% |       37560     12.30%     54.28% |       37515     12.29%     66.57% |       33605     11.01%     77.58% |       30754     10.07%     87.65% |       37693     12.35%    100.00% (Unspecified)
system.caches.L2Cache_Controller.SS.L1_GETS::total       305297                       (Unspecified)
system.caches.L2Cache_Controller.SS.L1_GETX |         954     58.42%     58.42% |           1      0.06%     58.48% |           0      0.00%     58.48% |           0      0.00%     58.48% |          11      0.67%     59.15% |           1      0.06%     59.22% |         663     40.60%     99.82% |           3      0.18%    100.00% (Unspecified)
system.caches.L2Cache_Controller.SS.L1_GETX::total         1633                       (Unspecified)
system.caches.L2Cache_Controller.SS.L1_UPGRADE |        8209     29.93%     29.93% |        4755     17.34%     47.26% |          35      0.13%     47.39% |          27      0.10%     47.49% |         106      0.39%     47.87% |          29      0.11%     47.98% |       14170     51.66%     99.64% |          99      0.36%    100.00% (Unspecified)
system.caches.L2Cache_Controller.SS.L1_UPGRADE::total        27430                       (Unspecified)
system.caches.L2Cache_Controller.M.L1_GETS |     1871856     12.46%     12.46% |     1878860     12.51%     24.97% |     1872636     12.47%     37.43% |     1879897     12.51%     49.95% |     1880488     12.52%     62.46% |     1878797     12.51%     74.97% |     1884792     12.55%     87.51% |     1875695     12.49%    100.00% (Unspecified)
system.caches.L2Cache_Controller.M.L1_GETS::total     15023021                       (Unspecified)
system.caches.L2Cache_Controller.M.L1_GETX |     1956213     12.50%     12.50% |     1955692     12.50%     24.99% |     1954798     12.49%     37.48% |     1956695     12.50%     49.98% |     1954833     12.49%     62.47% |     1961191     12.53%     75.00% |     1958381     12.51%     87.52% |     1953962     12.48%    100.00% (Unspecified)
system.caches.L2Cache_Controller.M.L1_GETX::total     15651765                       (Unspecified)
system.caches.L2Cache_Controller.M.MEM_Inv |          25     12.69%     12.69% |          25     12.69%     25.38% |          22     11.17%     36.55% |          24     12.18%     48.73% |          24     12.18%     60.91% |          28     14.21%     75.13% |          25     12.69%     87.82% |          24     12.18%    100.00% (Unspecified)
system.caches.L2Cache_Controller.M.MEM_Inv::total          197                       (Unspecified)
system.caches.L2Cache_Controller.MT.L1_GETS |        9224     31.25%     31.25% |        4820     16.33%     47.57% |          99      0.34%     47.91% |          77      0.26%     48.17% |         177      0.60%     48.77% |          82      0.28%     49.05% |       14882     50.41%     99.46% |         159      0.54%    100.00% (Unspecified)
system.caches.L2Cache_Controller.MT.L1_GETS::total        29520                       (Unspecified)
system.caches.L2Cache_Controller.MT.L1_GETX |         697     88.56%     88.56% |          21      2.67%     91.23% |          11      1.40%     92.63% |          14      1.78%     94.41% |           6      0.76%     95.17% |          13      1.65%     96.82% |          10      1.27%     98.09% |          15      1.91%    100.00% (Unspecified)
system.caches.L2Cache_Controller.MT.L1_GETX::total          787                       (Unspecified)
system.caches.L2Cache_Controller.MT.L1_PUTX |     3830958     12.48%     12.48% |     3837299     12.50%     24.98% |     3830172     12.48%     37.46% |     3839356     12.51%     49.97% |     3838045     12.50%     62.47% |     3842717     12.52%     74.99% |     3845899     12.53%     87.52% |     3832400     12.48%    100.00% (Unspecified)
system.caches.L2Cache_Controller.MT.L1_PUTX::total     30696846                       (Unspecified)
system.caches.L2Cache_Controller.MT.MEM_Inv |         274     12.59%     12.59% |         272     12.49%     25.08% |         275     12.63%     37.71% |         273     12.54%     50.25% |         272     12.49%     62.75% |         268     12.31%     75.06% |         271     12.45%     87.51% |         272     12.49%    100.00% (Unspecified)
system.caches.L2Cache_Controller.MT.MEM_Inv::total         2177                       (Unspecified)
system.caches.L2Cache_Controller.M_I.Mem_Ack |         299     12.59%     12.59% |         297     12.51%     25.11% |         297     12.51%     37.62% |         297     12.51%     50.13% |         296     12.47%     62.59% |         296     12.47%     75.06% |         296     12.47%     87.53% |         296     12.47%    100.00% (Unspecified)
system.caches.L2Cache_Controller.M_I.Mem_Ack::total         2374                       (Unspecified)
system.caches.L2Cache_Controller.M_I.MEM_Inv |          25     12.69%     12.69% |          25     12.69%     25.38% |          22     11.17%     36.55% |          24     12.18%     48.73% |          24     12.18%     60.91% |          28     14.21%     75.13% |          25     12.69%     87.82% |          24     12.18%    100.00% (Unspecified)
system.caches.L2Cache_Controller.M_I.MEM_Inv::total          197                       (Unspecified)
system.caches.L2Cache_Controller.MT_I.WB_Data |          19     14.18%     14.18% |          17     12.69%     26.87% |          17     12.69%     39.55% |          17     12.69%     52.24% |          16     11.94%     64.18% |          16     11.94%     76.12% |          16     11.94%     88.06% |          16     11.94%    100.00% (Unspecified)
system.caches.L2Cache_Controller.MT_I.WB_Data::total          134                       (Unspecified)
system.caches.L2Cache_Controller.MT_I.Ack_all |         255     12.48%     12.48% |         255     12.48%     24.96% |         258     12.63%     37.59% |         256     12.53%     50.12% |         256     12.53%     62.65% |         252     12.33%     74.99% |         255     12.48%     87.47% |         256     12.53%    100.00% (Unspecified)
system.caches.L2Cache_Controller.MT_I.Ack_all::total         2043                       (Unspecified)
system.caches.L2Cache_Controller.MT_I.MEM_Inv |         274     12.59%     12.59% |         272     12.49%     25.08% |         275     12.63%     37.71% |         273     12.54%     50.25% |         272     12.49%     62.75% |         268     12.31%     75.06% |         271     12.45%     87.51% |         272     12.49%    100.00% (Unspecified)
system.caches.L2Cache_Controller.MT_I.MEM_Inv::total         2177                       (Unspecified)
system.caches.L2Cache_Controller.ISS.L1_GETS |           6     42.86%     42.86% |           2     14.29%     57.14% |           2     14.29%     71.43% |           2     14.29%     85.71% |           1      7.14%     92.86% |           0      0.00%     92.86% |           1      7.14%    100.00% |           0      0.00%    100.00% (Unspecified)
system.caches.L2Cache_Controller.ISS.L1_GETS::total           14                       (Unspecified)
system.caches.L2Cache_Controller.ISS.Mem_Data |        4091     12.64%     12.64% |        4058     12.54%     25.18% |        4040     12.49%     37.67% |        4070     12.58%     50.25% |        4021     12.43%     62.67% |        4037     12.48%     75.15% |        4021     12.43%     87.58% |        4020     12.42%    100.00% (Unspecified)
system.caches.L2Cache_Controller.ISS.Mem_Data::total        32358                       (Unspecified)
system.caches.L2Cache_Controller.IS.L1_GET_INSTR |           7      9.72%      9.72% |          11     15.28%     25.00% |          10     13.89%     38.89% |           6      8.33%     47.22% |           9     12.50%     59.72% |          14     19.44%     79.17% |           7      9.72%     88.89% |           8     11.11%    100.00% (Unspecified)
system.caches.L2Cache_Controller.IS.L1_GET_INSTR::total           72                       (Unspecified)
system.caches.L2Cache_Controller.IS.Mem_Data |         379     12.39%     12.39% |         377     12.32%     24.71% |         390     12.75%     37.45% |         398     13.01%     50.46% |         392     12.81%     63.27% |         395     12.91%     76.18% |         369     12.06%     88.24% |         360     11.76%    100.00% (Unspecified)
system.caches.L2Cache_Controller.IS.Mem_Data::total         3060                       (Unspecified)
system.caches.L2Cache_Controller.IM.Mem_Data |        1086     13.37%     13.37% |        1000     12.31%     25.69% |        1007     12.40%     38.09% |         990     12.19%     50.28% |        1010     12.44%     62.71% |         994     12.24%     74.95% |        1011     12.45%     87.40% |        1023     12.60%    100.00% (Unspecified)
system.caches.L2Cache_Controller.IM.Mem_Data::total         8121                       (Unspecified)
system.caches.L2Cache_Controller.SS_MB.L1_GETS |           2      0.04%      0.04% |           0      0.00%      0.04% |           0      0.00%      0.04% |           0      0.00%      0.04% |           0      0.00%      0.04% |           0      0.00%      0.04% |        5198     99.96%    100.00% |           0      0.00%    100.00% (Unspecified)
system.caches.L2Cache_Controller.SS_MB.L1_GETS::total         5200                       (Unspecified)
system.caches.L2Cache_Controller.SS_MB.Exclusive_Unblock |        9163     31.53%     31.53% |        4756     16.36%     47.89% |          35      0.12%     48.01% |          27      0.09%     48.11% |         117      0.40%     48.51% |          30      0.10%     48.61% |       14833     51.04%     99.65% |         102      0.35%    100.00% (Unspecified)
system.caches.L2Cache_Controller.SS_MB.Exclusive_Unblock::total        29063                       (Unspecified)
system.caches.L2Cache_Controller.MT_MB.L1_GETS |           0      0.00%      0.00% |           4    100.00%    100.00% |           0      0.00%    100.00% |           0      0.00%    100.00% |           0      0.00%    100.00% |           0      0.00%    100.00% |           0      0.00%    100.00% |           0      0.00%    100.00% (Unspecified)
system.caches.L2Cache_Controller.MT_MB.L1_GETS::total            4                       (Unspecified)
system.caches.L2Cache_Controller.MT_MB.Exclusive_Unblock |     3833943     12.48%     12.48% |     3839631     12.50%     24.98% |     3832492     12.48%     37.46% |     3841666     12.51%     49.97% |     3840358     12.50%     62.47% |     3845032     12.52%     74.99% |     3848215     12.53%     87.52% |     3834715     12.48%    100.00% (Unspecified)
system.caches.L2Cache_Controller.MT_MB.Exclusive_Unblock::total     30716052                       (Unspecified)
system.caches.L2Cache_Controller.MT_IIB.WB_Data |        9159     32.04%     32.04% |        4267     14.93%     46.97% |          39      0.14%     47.10% |          28      0.10%     47.20% |         123      0.43%     47.63% |          32      0.11%     47.74% |       14831     51.88%     99.63% |         107      0.37%    100.00% (Unspecified)
system.caches.L2Cache_Controller.MT_IIB.WB_Data::total        28586                       (Unspecified)
system.caches.L2Cache_Controller.MT_IIB.WB_Data_clean |          65      6.96%      6.96% |         553     59.21%     66.17% |          60      6.42%     72.59% |          49      5.25%     77.84% |          54      5.78%     83.62% |          50      5.35%     88.97% |          51      5.46%     94.43% |          52      5.57%    100.00% (Unspecified)
system.caches.L2Cache_Controller.MT_IIB.WB_Data_clean::total          934                       (Unspecified)
system.caches.L2Cache_Controller.MT_SB.L1_UPGRADE |           0      0.00%      0.00% |           0      0.00%      0.00% |           0      0.00%      0.00% |           0      0.00%      0.00% |           0      0.00%      0.00% |           0      0.00%      0.00% |        3913    100.00%    100.00% |           0      0.00%    100.00% (Unspecified)
system.caches.L2Cache_Controller.MT_SB.L1_UPGRADE::total         3913                       (Unspecified)
system.caches.L2Cache_Controller.MT_SB.Unblock |        9224     31.25%     31.25% |        4820     16.33%     47.57% |          99      0.34%     47.91% |          77      0.26%     48.17% |         177      0.60%     48.77% |          82      0.28%     49.05% |       14882     50.41%     99.46% |         159      0.54%    100.00% (Unspecified)
system.caches.L2Cache_Controller.MT_SB.Unblock::total        29520                       (Unspecified)
system.caches.RequestType.LD.latency_hist_seqr::bucket_size          512                       (Unspecified)
system.caches.RequestType.LD.latency_hist_seqr::max_bucket         5119                       (Unspecified)
system.caches.RequestType.LD.latency_hist_seqr::samples   2268457779                       (Unspecified)
system.caches.RequestType.LD.latency_hist_seqr::mean     1.101064                       (Unspecified)
system.caches.RequestType.LD.latency_hist_seqr::gmean     1.018463                       (Unspecified)
system.caches.RequestType.LD.latency_hist_seqr::stdev     2.396946                       (Unspecified)
system.caches.RequestType.LD.latency_hist_seqr |  2268454499    100.00%    100.00% |        2114      0.00%    100.00% |         526      0.00%    100.00% |         622      0.00%    100.00% |          14      0.00%    100.00% |           4      0.00%    100.00% |           0      0.00%    100.00% |           0      0.00%    100.00% |           0      0.00%    100.00% |           0      0.00%    100.00% (Unspecified)
system.caches.RequestType.LD.latency_hist_seqr::total   2268457779                       (Unspecified)
system.caches.RequestType.LD.hit_latency_hist_seqr::bucket_size            1                       (Unspecified)
system.caches.RequestType.LD.hit_latency_hist_seqr::max_bucket            9                       (Unspecified)
system.caches.RequestType.LD.hit_latency_hist_seqr::samples   2253067555                       (Unspecified)
system.caches.RequestType.LD.hit_latency_hist_seqr::mean            1                       (Unspecified)
system.caches.RequestType.LD.hit_latency_hist_seqr::gmean            1                       (Unspecified)
system.caches.RequestType.LD.hit_latency_hist_seqr |           0      0.00%      0.00% |  2253067555    100.00%    100.00% |           0      0.00%    100.00% |           0      0.00%    100.00% |           0      0.00%    100.00% |           0      0.00%    100.00% |           0      0.00%    100.00% |           0      0.00%    100.00% |           0      0.00%    100.00% |           0      0.00%    100.00% (Unspecified)
system.caches.RequestType.LD.hit_latency_hist_seqr::total   2253067555                       (Unspecified)
system.caches.RequestType.LD.miss_latency_hist_seqr::bucket_size          512                       (Unspecified)
system.caches.RequestType.LD.miss_latency_hist_seqr::max_bucket         5119                       (Unspecified)
system.caches.RequestType.LD.miss_latency_hist_seqr::samples     15390224                       (Unspecified)
system.caches.RequestType.LD.miss_latency_hist_seqr::mean    15.896389                       (Unspecified)
system.caches.RequestType.LD.miss_latency_hist_seqr::gmean    14.828539                       (Unspecified)
system.caches.RequestType.LD.miss_latency_hist_seqr::stdev    25.028878                       (Unspecified)
system.caches.RequestType.LD.miss_latency_hist_seqr |    15386944     99.98%     99.98% |        2114      0.01%     99.99% |         526      0.00%    100.00% |         622      0.00%    100.00% |          14      0.00%    100.00% |           4      0.00%    100.00% |           0      0.00%    100.00% |           0      0.00%    100.00% |           0      0.00%    100.00% |           0      0.00%    100.00% (Unspecified)
system.caches.RequestType.LD.miss_latency_hist_seqr::total     15390224                       (Unspecified)
system.caches.RequestType.ST.latency_hist_seqr::bucket_size          256                       (Unspecified)
system.caches.RequestType.ST.latency_hist_seqr::max_bucket         2559                       (Unspecified)
system.caches.RequestType.ST.latency_hist_seqr::samples    963268731                       (Unspecified)
system.caches.RequestType.ST.latency_hist_seqr::mean     1.235615                       (Unspecified)
system.caches.RequestType.ST.latency_hist_seqr::gmean     1.045149                       (Unspecified)
system.caches.RequestType.ST.latency_hist_seqr::stdev     2.403179                       (Unspecified)
system.caches.RequestType.ST.latency_hist_seqr |   963260880    100.00%    100.00% |        6843      0.00%    100.00% |         748      0.00%    100.00% |          77      0.00%    100.00% |           6      0.00%    100.00% |           5      0.00%    100.00% |          92      0.00%    100.00% |          74      0.00%    100.00% |           3      0.00%    100.00% |           3      0.00%    100.00% (Unspecified)
system.caches.RequestType.ST.latency_hist_seqr::total    963268731                       (Unspecified)
system.caches.RequestType.ST.hit_latency_hist_seqr::bucket_size            1                       (Unspecified)
system.caches.RequestType.ST.hit_latency_hist_seqr::max_bucket            9                       (Unspecified)
system.caches.RequestType.ST.hit_latency_hist_seqr::samples    947614933                       (Unspecified)
system.caches.RequestType.ST.hit_latency_hist_seqr::mean            1                       (Unspecified)
system.caches.RequestType.ST.hit_latency_hist_seqr::gmean            1                       (Unspecified)
system.caches.RequestType.ST.hit_latency_hist_seqr |           0      0.00%      0.00% |   947614933    100.00%    100.00% |           0      0.00%    100.00% |           0      0.00%    100.00% |           0      0.00%    100.00% |           0      0.00%    100.00% |           0      0.00%    100.00% |           0      0.00%    100.00% |           0      0.00%    100.00% |           0      0.00%    100.00% (Unspecified)
system.caches.RequestType.ST.hit_latency_hist_seqr::total    947614933                       (Unspecified)
system.caches.RequestType.ST.miss_latency_hist_seqr::bucket_size          256                       (Unspecified)
system.caches.RequestType.ST.miss_latency_hist_seqr::max_bucket         2559                       (Unspecified)
system.caches.RequestType.ST.miss_latency_hist_seqr::samples     15653798                       (Unspecified)
system.caches.RequestType.ST.miss_latency_hist_seqr::mean    15.498772                       (Unspecified)
system.caches.RequestType.ST.miss_latency_hist_seqr::gmean    15.140685                       (Unspecified)
system.caches.RequestType.ST.miss_latency_hist_seqr::stdev    12.189645                       (Unspecified)
system.caches.RequestType.ST.miss_latency_hist_seqr |    15645947     99.95%     99.95% |        6843      0.04%     99.99% |         748      0.00%    100.00% |          77      0.00%    100.00% |           6      0.00%    100.00% |           5      0.00%    100.00% |          92      0.00%    100.00% |          74      0.00%    100.00% |           3      0.00%    100.00% |           3      0.00%    100.00% (Unspecified)
system.caches.RequestType.ST.miss_latency_hist_seqr::total     15653798                       (Unspecified)
system.caches.RequestType.IFETCH.latency_hist_seqr::bucket_size          256                       (Unspecified)
system.caches.RequestType.IFETCH.latency_hist_seqr::max_bucket         2559                       (Unspecified)
system.caches.RequestType.IFETCH.latency_hist_seqr::samples  16533397673                       (Unspecified)
system.caches.RequestType.IFETCH.latency_hist_seqr::mean     1.000389                       (Unspecified)
system.caches.RequestType.IFETCH.latency_hist_seqr::gmean     1.000063                       (Unspecified)
system.caches.RequestType.IFETCH.latency_hist_seqr::stdev     0.252811                       (Unspecified)
system.caches.RequestType.IFETCH.latency_hist_seqr | 16533394556    100.00%    100.00% |        2162      0.00%    100.00% |         841      0.00%    100.00% |          47      0.00%    100.00% |           2      0.00%    100.00% |           3      0.00%    100.00% |          20      0.00%    100.00% |          41      0.00%    100.00% |           1      0.00%    100.00% |           0      0.00%    100.00% (Unspecified)
system.caches.RequestType.IFETCH.latency_hist_seqr::total  16533397673                       (Unspecified)
system.caches.RequestType.IFETCH.hit_latency_hist_seqr::bucket_size            1                       (Unspecified)
system.caches.RequestType.IFETCH.hit_latency_hist_seqr::max_bucket            9                       (Unspecified)
system.caches.RequestType.IFETCH.hit_latency_hist_seqr::samples  16532994898                       (Unspecified)
system.caches.RequestType.IFETCH.hit_latency_hist_seqr::mean            1                       (Unspecified)
[...]
system.timingCpu0.exec_context.thread_0.statExecutedInstType::SimdFloatMultAcc            0      0.00%     83.99% # Class of executed instruction. (Count)
system.timingCpu0.exec_context.thread_0.statExecutedInstType::SimdFloatSqrt     24556795      0.24%     84.23% # Class of executed instruction. (Count)
system.timingCpu0.exec_context.thread_0.statExecutedInstType::SimdReduceAdd            0      0.00%     84.23% # Class of executed instruction. (Count)
system.timingCpu0.exec_context.thread_0.statExecutedInstType::SimdReduceAlu            0      0.00%     84.23% # Class of executed instruction. (Count)
system.timingCpu0.exec_context.thread_0.statExecutedInstType::SimdReduceCmp            0      0.00%     84.23% # Class of executed instruction. (Count)
system.timingCpu0.exec_context.thread_0.statExecutedInstType::SimdFloatReduceAdd            0      0.00%     84.23% # Class of executed instruction. (Count)
system.timingCpu0.exec_context.thread_0.statExecutedInstType::SimdFloatReduceCmp            0      0.00%     84.23% # Class of executed instruction. (Count)
system.timingCpu0.exec_context.thread_0.statExecutedInstType::SimdAes            0      0.00%     84.23% # Class of executed instruction. (Count)
system.timingCpu0.exec_context.thread_0.statExecutedInstType::SimdAesMix            0      0.00%     84.23% # Class of executed instruction. (Count)
system.timingCpu0.exec_context.thread_0.statExecutedInstType::SimdSha1Hash            0      0.00%     84.23% # Class of executed instruction. (Count)
system.timingCpu0.exec_context.thread_0.statExecutedInstType::SimdSha1Hash2            0      0.00%     84.23% # Class of executed instruction. (Count)
system.timingCpu0.exec_context.thread_0.statExecutedInstType::SimdSha256Hash            0      0.00%     84.23% # Class of executed instruction. (Count)
system.timingCpu0.exec_context.thread_0.statExecutedInstType::SimdSha256Hash2            0      0.00%     84.23% # Class of executed instruction. (Count)
system.timingCpu0.exec_context.thread_0.statExecutedInstType::SimdShaSigma2            0      0.00%     84.23% # Class of executed instruction. (Count)
system.timingCpu0.exec_context.thread_0.statExecutedInstType::SimdShaSigma3            0      0.00%     84.23% # Class of executed instruction. (Count)
system.timingCpu0.exec_context.thread_0.statExecutedInstType::SimdPredAlu            0      0.00%     84.23% # Class of executed instruction. (Count)
system.timingCpu0.exec_context.thread_0.statExecutedInstType::MemRead    299194226      2.92%     87.15% # Class of executed instruction. (Count)
system.timingCpu0.exec_context.thread_0.statExecutedInstType::MemWrite    223064241      2.18%     89.33% # Class of executed instruction. (Count)
system.timingCpu0.exec_context.thread_0.statExecutedInstType::FloatMemRead    833901253      8.14%     97.47% # Class of executed instruction. (Count)
system.timingCpu0.exec_context.thread_0.statExecutedInstType::FloatMemWrite    258998288      2.53%    100.00% # Class of executed instruction. (Count)
system.timingCpu0.exec_context.thread_0.statExecutedInstType::IprAccess            0      0.00%    100.00% # Class of executed instruction. (Count)
system.timingCpu0.exec_context.thread_0.statExecutedInstType::InstPrefetch            0      0.00%    100.00% # Class of executed instruction. (Count)
system.timingCpu0.exec_context.thread_0.statExecutedInstType::total  10241776641                       # Class of executed instruction. (Count)
system.timingCpu0.mmu.dtb.rdAccesses       1133369205                       # TLB accesses on read requests (Count)
system.timingCpu0.mmu.dtb.wrAccesses        482197889                       # TLB accesses on write requests (Count)
system.timingCpu0.mmu.dtb.rdMisses             273738                       # TLB misses on read requests (Count)
system.timingCpu0.mmu.dtb.wrMisses             135408                       # TLB misses on write requests (Count)
system.timingCpu0.mmu.dtb.walker.power_state.pwrStateResidencyTicks::UNDEFINED 22143406829750                       # Cumulative time (in ticks) in various power states (Tick)
system.timingCpu0.mmu.itb.rdAccesses                0                       # TLB accesses on read requests (Count)
system.timingCpu0.mmu.itb.wrAccesses       8266294524                       # TLB accesses on write requests (Count)
system.timingCpu0.mmu.itb.rdMisses                  0                       # TLB misses on read requests (Count)
system.timingCpu0.mmu.itb.wrMisses              32758                       # TLB misses on write requests (Count)
system.timingCpu0.mmu.itb.walker.power_state.pwrStateResidencyTicks::UNDEFINED 22143406829750                       # Cumulative time (in ticks) in various power states (Tick)
system.timingCpu0.power_state.pwrStateResidencyTicks::OFF 22143406829750                       # Cumulative time (in ticks) in various power states (Tick)
system.timingCpu0.thread_0.numInsts                 0                       # Number of Instructions committed (Count)
system.timingCpu0.thread_0.numOps                   0                       # Number of Ops committed (Count)
system.timingCpu0.thread_0.numMemRefs               0                       # Number of Memory References (Count)
system.timingCpu1.numCycles               19999999999                       # Number of cpu cycles simulated (Cycle)
system.timingCpu1.numWorkItemsStarted               0                       # Number of work items this cpu started (Count)
system.timingCpu1.numWorkItemsCompleted             0                       # Number of work items this cpu completed (Count)
system.timingCpu1.exec_context.thread_0.numInsts   5750003374                       # Number of instructions committed (Count)
system.timingCpu1.exec_context.thread_0.numOps  10238352114                       # Number of ops (including micro ops) committed (Count)
system.timingCpu1.exec_context.thread_0.numIntAluAccesses   6021020849                       # Number of integer alu accesses (Count)
system.timingCpu1.exec_context.thread_0.numFpAluAccesses   5565547883                       # Number of float alu accesses (Count)
system.timingCpu1.exec_context.thread_0.numVecAluAccesses            0                       # Number of vector alu accesses (Count)
system.timingCpu1.exec_context.thread_0.numCallsReturns     49958500                       # Number of times a function call or return occured (Count)
system.timingCpu1.exec_context.thread_0.numCondCtrlInsts    396711678                       # Number of instructions that are conditional controls (Count)
system.timingCpu1.exec_context.thread_0.numIntInsts   6021020849                       # Number of integer instructions (Count)
system.timingCpu1.exec_context.thread_0.numFpInsts   5565547883                       # Number of float instructions (Count)
system.timingCpu1.exec_context.thread_0.numVecInsts            0                       # Number of vector instructions (Count)
system.timingCpu1.exec_context.thread_0.numIntRegReads   6840170342                       # Number of times the integer registers were read (Count)
system.timingCpu1.exec_context.thread_0.numIntRegWrites   3876834700                       # Number of times the integer registers were written (Count)
system.timingCpu1.exec_context.thread_0.numFpRegReads   9322727804                       # Number of times the floating registers were read (Count)
system.timingCpu1.exec_context.thread_0.numFpRegWrites   4982489951                       # Number of times the floating registers were written (Count)
system.timingCpu1.exec_context.thread_0.numVecRegReads            0                       # Number of times the vector registers were read (Count)
system.timingCpu1.exec_context.thread_0.numVecRegWrites            0                       # Number of times the vector registers were written (Count)
system.timingCpu1.exec_context.thread_0.numVecPredRegReads            0                       # Number of times the predicate registers were read (Count)
system.timingCpu1.exec_context.thread_0.numVecPredRegWrites            0                       # Number of times the predicate registers were written (Count)
system.timingCpu1.exec_context.thread_0.numCCRegReads   2791549239                       # Number of times the CC registers were read (Count)
system.timingCpu1.exec_context.thread_0.numCCRegWrites   2062836457                       # Number of times the CC registers were written (Count)
system.timingCpu1.exec_context.thread_0.numMiscRegReads   3120962031                       # Number of times the Misc registers were read (Count)
system.timingCpu1.exec_context.thread_0.numMiscRegWrites       179533                       # Number of times the Misc registers were written (Count)
system.timingCpu1.exec_context.thread_0.numMemRefs   1613725189                       # Number of memory refs (Count)
system.timingCpu1.exec_context.thread_0.numLoadInsts   1132423009                       # Number of load instructions (Count)
system.timingCpu1.exec_context.thread_0.numStoreInsts    481302180                       # Number of store instructions (Count)
system.timingCpu1.exec_context.thread_0.numIdleCycles            0                       # Number of idle cycles (Cycle)
system.timingCpu1.exec_context.thread_0.numBusyCycles  19999999999                       # Number of busy cycles (Cycle)
system.timingCpu1.exec_context.thread_0.notIdleFraction            1                       # Percentage of non-idle cycles (Ratio)
system.timingCpu1.exec_context.thread_0.idleFraction            0                       # Percentage of idle cycles (Ratio)
system.timingCpu1.exec_context.thread_0.numBranches    550839768                       # Number of branches fetched (Count)
system.timingCpu1.exec_context.thread_0.statExecutedInstType::No_OpClass        26473      0.00%      0.00% # Class of executed instruction. (Count)
system.timingCpu1.exec_context.thread_0.statExecutedInstType::IntAlu   5335422983     52.11%     52.11% # Class of executed instruction. (Count)
system.timingCpu1.exec_context.thread_0.statExecutedInstType::IntMult     62641960      0.61%     52.72% # Class of executed instruction. (Count)
system.timingCpu1.exec_context.thread_0.statExecutedInstType::IntDiv       221013      0.00%     52.73% # Class of executed instruction. (Count)
system.timingCpu1.exec_context.thread_0.statExecutedInstType::FloatAdd    475891603      4.65%     57.37% # Class of executed instruction. (Count)
system.timingCpu1.exec_context.thread_0.statExecutedInstType::FloatCmp            0      0.00%     57.37% # Class of executed instruction. (Count)
system.timingCpu1.exec_context.thread_0.statExecutedInstType::FloatCvt          208      0.00%     57.37% # Class of executed instruction. (Count)
system.timingCpu1.exec_context.thread_0.statExecutedInstType::FloatMult            0      0.00%     57.37% # Class of executed instruction. (Count)
system.timingCpu1.exec_context.thread_0.statExecutedInstType::FloatMultAcc            0      0.00%     57.37% # Class of executed instruction. (Count)
system.timingCpu1.exec_context.thread_0.statExecutedInstType::FloatDiv            0      0.00%     57.37% # Class of executed instruction. (Count)
system.timingCpu1.exec_context.thread_0.statExecutedInstType::FloatMisc            0      0.00%     57.37% # Class of executed instruction. (Count)
system.timingCpu1.exec_context.thread_0.statExecutedInstType::FloatSqrt            0      0.00%     57.37% # Class of executed instruction. (Count)
system.timingCpu1.exec_context.thread_0.statExecutedInstType::SimdAdd            0      0.00%     57.37% # Class of executed instruction. (Count)
system.timingCpu1.exec_context.thread_0.statExecutedInstType::SimdAddAcc            0      0.00%     57.37% # Class of executed instruction. (Count)
system.timingCpu1.exec_context.thread_0.statExecutedInstType::SimdAlu    782746208      7.65%     65.02% # Class of executed instruction. (Count)
system.timingCpu1.exec_context.thread_0.statExecutedInstType::SimdCmp            0      0.00%     65.02% # Class of executed instruction. (Count)
system.timingCpu1.exec_context.thread_0.statExecutedInstType::SimdCvt            0      0.00%     65.02% # Class of executed instruction. (Count)
system.timingCpu1.exec_context.thread_0.statExecutedInstType::SimdMisc    255405496      2.49%     67.51% # Class of executed instruction. (Count)
system.timingCpu1.exec_context.thread_0.statExecutedInstType::SimdMult            0      0.00%     67.51% # Class of executed instruction. (Count)
system.timingCpu1.exec_context.thread_0.statExecutedInstType::SimdMultAcc            0      0.00%     67.51% # Class of executed instruction. (Count)
system.timingCpu1.exec_context.thread_0.statExecutedInstType::SimdShift            0      0.00%     67.51% # Class of executed instruction. (Count)
system.timingCpu1.exec_context.thread_0.statExecutedInstType::SimdShiftAcc            0      0.00%     67.51% # Class of executed instruction. (Count)
system.timingCpu1.exec_context.thread_0.statExecutedInstType::SimdDiv            0      0.00%     67.51% # Class of executed instruction. (Count)
system.timingCpu1.exec_context.thread_0.statExecutedInstType::SimdSqrt            0      0.00%     67.51% # Class of executed instruction. (Count)
system.timingCpu1.exec_context.thread_0.statExecutedInstType::SimdFloatAdd    824487088      8.05%     75.57% # Class of executed instruction. (Count)
system.timingCpu1.exec_context.thread_0.statExecutedInstType::SimdFloatAlu            0      0.00%     75.57% # Class of executed instruction. (Count)
system.timingCpu1.exec_context.thread_0.statExecutedInstType::SimdFloatCmp            0      0.00%     75.57% # Class of executed instruction. (Count)
system.timingCpu1.exec_context.thread_0.statExecutedInstType::SimdFloatCvt    373477172      3.65%     79.22% # Class of executed instruction. (Count)
system.timingCpu1.exec_context.thread_0.statExecutedInstType::SimdFloatDiv     24569060      0.24%     79.46% # Class of executed instruction. (Count)
system.timingCpu1.exec_context.thread_0.statExecutedInstType::SimdFloatMisc            0      0.00%     79.46% # Class of executed instruction. (Count)
system.timingCpu1.exec_context.thread_0.statExecutedInstType::SimdFloatMult    465168601      4.54%     84.00% # Class of executed instruction. (Count)
system.timingCpu1.exec_context.thread_0.statExecutedInstType::SimdFloatMultAcc            0      0.00%     84.00% # Class of executed instruction. (Count)
system.timingCpu1.exec_context.thread_0.statExecutedInstType::SimdFloatSqrt     24569060      0.24%     84.24% # Class of executed instruction. (Count)
system.timingCpu1.exec_context.thread_0.statExecutedInstType::SimdReduceAdd            0      0.00%     84.24% # Class of executed instruction. (Count)
system.timingCpu1.exec_context.thread_0.statExecutedInstType::SimdReduceAlu            0      0.00%     84.24% # Class of executed instruction. (Count)
system.timingCpu1.exec_context.thread_0.statExecutedInstType::SimdReduceCmp            0      0.00%     84.24% # Class of executed instruction. (Count)
system.timingCpu1.exec_context.thread_0.statExecutedInstType::SimdFloatReduceAdd            0      0.00%     84.24% # Class of executed instruction. (Count)
system.timingCpu1.exec_context.thread_0.statExecutedInstType::SimdFloatReduceCmp            0      0.00%     84.24% # Class of executed instruction. (Count)
system.timingCpu1.exec_context.thread_0.statExecutedInstType::SimdAes            0      0.00%     84.24% # Class of executed instruction. (Count)
system.timingCpu1.exec_context.thread_0.statExecutedInstType::SimdAesMix            0      0.00%     84.24% # Class of executed instruction. (Count)
system.timingCpu1.exec_context.thread_0.statExecutedInstType::SimdSha1Hash            0      0.00%     84.24% # Class of executed instruction. (Count)
system.timingCpu1.exec_context.thread_0.statExecutedInstType::SimdSha1Hash2            0      0.00%     84.24% # Class of executed instruction. (Count)
system.timingCpu1.exec_context.thread_0.statExecutedInstType::SimdSha256Hash            0      0.00%     84.24% # Class of executed instruction. (Count)
system.timingCpu1.exec_context.thread_0.statExecutedInstType::SimdSha256Hash2            0      0.00%     84.24% # Class of executed instruction. (Count)
system.timingCpu1.exec_context.thread_0.statExecutedInstType::SimdShaSigma2            0      0.00%     84.24% # Class of executed instruction. (Count)
system.timingCpu1.exec_context.thread_0.statExecutedInstType::SimdShaSigma3            0      0.00%     84.24% # Class of executed instruction. (Count)
system.timingCpu1.exec_context.thread_0.statExecutedInstType::SimdPredAlu            0      0.00%     84.24% # Class of executed instruction. (Count)
system.timingCpu1.exec_context.thread_0.statExecutedInstType::MemRead    298121676      2.91%     87.15% # Class of executed instruction. (Count)
system.timingCpu1.exec_context.thread_0.statExecutedInstType::MemWrite    222214258      2.17%     89.32% # Class of executed instruction. (Count)
system.timingCpu1.exec_context.thread_0.statExecutedInstType::FloatMemRead    834301333      8.15%     97.47% # Class of executed instruction. (Count)
system.timingCpu1.exec_context.thread_0.statExecutedInstType::FloatMemWrite    259087922      2.53%    100.00% # Class of executed instruction. (Count)
system.timingCpu1.exec_context.thread_0.statExecutedInstType::IprAccess            0      0.00%    100.00% # Class of executed instruction. (Count)
system.timingCpu1.exec_context.thread_0.statExecutedInstType::InstPrefetch            0      0.00%    100.00% # Class of executed instruction. (Count)
system.timingCpu1.exec_context.thread_0.statExecutedInstType::total  10238352114                       # Class of executed instruction. (Count)
system.timingCpu1.mmu.dtb.rdAccesses       1132688580                       # TLB accesses on read requests (Count)
system.timingCpu1.mmu.dtb.wrAccesses        481437649                       # TLB accesses on write requests (Count)
system.timingCpu1.mmu.dtb.rdMisses             267341                       # TLB misses on read requests (Count)
system.timingCpu1.mmu.dtb.wrMisses             136021                       # TLB misses on write requests (Count)
system.timingCpu1.mmu.dtb.walker.power_state.pwrStateResidencyTicks::UNDEFINED 22143406829750                       # Cumulative time (in ticks) in various power states (Tick)
system.timingCpu1.mmu.itb.rdAccesses                0                       # TLB accesses on read requests (Count)
system.timingCpu1.mmu.itb.wrAccesses       8267168895                       # TLB accesses on write requests (Count)
system.timingCpu1.mmu.itb.rdMisses                  0                       # TLB misses on read requests (Count)
system.timingCpu1.mmu.itb.wrMisses              32988                       # TLB misses on write requests (Count)
system.timingCpu1.mmu.itb.walker.power_state.pwrStateResidencyTicks::UNDEFINED 22143406829750                       # Cumulative time (in ticks) in various power states (Tick)
system.timingCpu1.power_state.pwrStateResidencyTicks::OFF 22143406829750                       # Cumulative time (in ticks) in various power states (Tick)
system.timingCpu1.thread_0.numInsts                 0                       # Number of Instructions committed (Count)
system.timingCpu1.thread_0.numOps                   0                       # Number of Ops committed (Count)
system.timingCpu1.thread_0.numMemRefs               0                       # Number of Memory References (Count)
system.workload.inst.arm                            0                       # number of arm instructions executed (Count)
system.workload.inst.quiesce                        0                       # number of quiesce instructions executed (Count)

---------- End Simulation Statistics   ----------
