
---------- Begin Simulation Statistics ----------
simSeconds                                          2                       # Number of seconds simulated (Second)
simTicks                                 2000000000000                       # Number of ticks simulated (Tick)
finalTick                                22779924172250                       # Number of ticks from beginning of simulation (restored from checkpoints and never reset) (Tick)
simFreq                                  1000000000000                       # The number of ticks per simulated second ((Tick/Second))
hostSeconds                                   5409.73                       # Real time elapsed on the host (Second)
hostTickRate                                369704395                       # The number of ticks simulated per host second (ticks/s) ((Tick/Second))
hostMemory                                   12349976                       # Number of bytes of host memory used (Byte)
simInsts                                  49386859139                       # Number of instructions simulated (Count)
simOps                                    50011922481                       # Number of ops (including micro ops) simulated (Count)
hostInstRate                                  9129269                       # Simulator instruction rate (inst/s) ((Count/Second))
hostOpRate                                    9244814                       # Simulator op (including micro ops) rate (op/s) ((Count/Second))
system.atomicCpu0.numCycles                         0                       # Number of cpu cycles simulated (Cycle)
system.atomicCpu0.numWorkItemsStarted               0                       # Number of work items this cpu started (Count)
system.atomicCpu0.numWorkItemsCompleted             0                       # Number of work items this cpu completed (Count)
system.atomicCpu0.exec_context.thread_0.numInsts            0                       # Number of instructions committed (Count)
system.atomicCpu0.exec_context.thread_0.numOps            0                       # Number of ops (including micro ops) committed (Count)
system.atomicCpu0.exec_context.thread_0.numIntAluAccesses            0                       # Number of integer alu accesses (Count)
system.atomicCpu0.exec_context.thread_0.numFpAluAccesses            0                       # Number of float alu accesses (Count)
system.atomicCpu0.exec_context.thread_0.numVecAluAccesses            0                       # Number of vector alu accesses (Count)
system.atomicCpu0.exec_context.thread_0.numCallsReturns            0                       # Number of times a function call or return occured (Count)
system.atomicCpu0.exec_context.thread_0.numCondCtrlInsts            0                       # Number of instructions that are conditional controls (Count)
system.atomicCpu0.exec_context.thread_0.numIntInsts            0                       # Number of integer instructions (Count)
system.atomicCpu0.exec_context.thread_0.numFpInsts            0                       # Number of float instructions (Count)
system.atomicCpu0.exec_context.thread_0.numVecInsts            0                       # Number of vector instructions (Count)
system.atomicCpu0.exec_context.thread_0.numIntRegReads            0                       # Number of times the integer registers were read (Count)
system.atomicCpu0.exec_context.thread_0.numIntRegWrites            0                       # Number of times the integer registers were written (Count)
system.atomicCpu0.exec_context.thread_0.numFpRegReads            0                       # Number of times the floating registers were read (Count)
system.atomicCpu0.exec_context.thread_0.numFpRegWrites            0                       # Number of times the floating registers were written (Count)
system.atomicCpu0.exec_context.thread_0.numVecRegReads            0                       # Number of times the vector registers were read (Count)
system.atomicCpu0.exec_context.thread_0.numVecRegWrites            0                       # Number of times the vector registers were written (Count)
system.atomicCpu0.exec_context.thread_0.numVecPredRegReads            0                       # Number of times the predicate registers were read (Count)
system.atomicCpu0.exec_context.thread_0.numVecPredRegWrites            0                       # Number of times the predicate registers were written (Count)
system.atomicCpu0.exec_context.thread_0.numMiscRegReads            0                       # Number of times the Misc registers were read (Count)
system.atomicCpu0.exec_context.thread_0.numMiscRegWrites            0                       # Number of times the Misc registers were written (Count)
system.atomicCpu0.exec_context.thread_0.numMemRefs            0                       # Number of memory refs (Count)
system.atomicCpu0.exec_context.thread_0.numLoadInsts            0                       # Number of load instructions (Count)
system.atomicCpu0.exec_context.thread_0.numStoreInsts            0                       # Number of store instructions (Count)
system.atomicCpu0.exec_context.thread_0.numIdleCycles            0                       # Number of idle cycles (Cycle)
system.atomicCpu0.exec_context.thread_0.numBusyCycles            0                       # Number of busy cycles (Cycle)
system.atomicCpu0.exec_context.thread_0.notIdleFraction            0                       # Percentage of non-idle cycles (Ratio)
system.atomicCpu0.exec_context.thread_0.idleFraction            1                       # Percentage of idle cycles (Ratio)
system.atomicCpu0.exec_context.thread_0.statExecutedInstType::No_OpClass            0                       # Class of executed instruction. (Count)
system.atomicCpu0.exec_context.thread_0.statExecutedInstType::IntAlu            0                       # Class of executed instruction. (Count)
system.atomicCpu0.exec_context.thread_0.statExecutedInstType::IntMult            0                       # Class of executed instruction. (Count)
system.atomicCpu0.exec_context.thread_0.statExecutedInstType::IntDiv            0                       # Class of executed instruction. (Count)
system.atomicCpu0.exec_context.thread_0.statExecutedInstType::FloatAdd            0                       # Class of executed instruction. (Count)
system.atomicCpu0.exec_context.thread_0.statExecutedInstType::FloatCmp            0                       # Class of executed instruction. (Count)
system.atomicCpu0.exec_context.thread_0.statExecutedInstType::FloatCvt            0                       # Class of executed instruction. (Count)
system.atomicCpu0.exec_context.thread_0.statExecutedInstType::FloatMult            0                       # Class of executed instruction. (Count)
system.atomicCpu0.exec_context.thread_0.statExecutedInstType::FloatMultAcc            0                       # Class of executed instruction. (Count)
system.atomicCpu0.exec_context.thread_0.statExecutedInstType::FloatDiv            0                       # Class of executed instruction. (Count)
system.atomicCpu0.exec_context.thread_0.statExecutedInstType::FloatMisc            0                       # Class of executed instruction. (Count)
system.atomicCpu0.exec_context.thread_0.statExecutedInstType::FloatSqrt            0                       # Class of executed instruction. (Count)
system.atomicCpu0.exec_context.thread_0.statExecutedInstType::SimdAdd            0                       # Class of executed instruction. (Count)
system.atomicCpu0.exec_context.thread_0.statExecutedInstType::SimdAddAcc            0                       # Class of executed instruction. (Count)
system.atomicCpu0.exec_context.thread_0.statExecutedInstType::SimdAlu            0                       # Class of executed instruction. (Count)
system.atomicCpu0.exec_context.thread_0.statExecutedInstType::SimdCmp            0                       # Class of executed instruction. (Count)
system.atomicCpu0.exec_context.thread_0.statExecutedInstType::SimdCvt            0                       # Class of executed instruction. (Count)
system.atomicCpu0.exec_context.thread_0.statExecutedInstType::SimdMisc            0                       # Class of executed instruction. (Count)
system.atomicCpu0.exec_context.thread_0.statExecutedInstType::SimdMult            0                       # Class of executed instruction. (Count)
system.atomicCpu0.exec_context.thread_0.statExecutedInstType::SimdMultAcc            0                       # Class of executed instruction. (Count)
system.atomicCpu0.exec_context.thread_0.statExecutedInstType::SimdShift            0                       # Class of executed instruction. (Count)
system.atomicCpu0.exec_context.thread_0.statExecutedInstType::SimdShiftAcc            0                       # Class of executed instruction. (Count)
system.atomicCpu0.exec_context.thread_0.statExecutedInstType::SimdDiv            0                       # Class of executed instruction. (Count)
system.atomicCpu0.exec_context.thread_0.statExecutedInstType::SimdSqrt            0                       # Class of executed instruction. (Count)
system.atomicCpu0.exec_context.thread_0.statExecutedInstType::SimdFloatAdd            0                       # Class of executed instruction. (Count)
system.atomicCpu0.exec_context.thread_0.statExecutedInstType::SimdFloatAlu            0                       # Class of executed instruction. (Count)
system.atomicCpu0.exec_context.thread_0.statExecutedInstType::SimdFloatCmp            0                       # Class of executed instruction. (Count)
system.atomicCpu0.exec_context.thread_0.statExecutedInstType::SimdFloatCvt            0                       # Class of executed instruction. (Count)
system.atomicCpu0.exec_context.thread_0.statExecutedInstType::SimdFloatDiv            0                       # Class of executed instruction. (Count)
system.atomicCpu0.exec_context.thread_0.statExecutedInstType::SimdFloatMisc            0                       # Class of executed instruction. (Count)
system.atomicCpu0.exec_context.thread_0.statExecutedInstType::SimdFloatMult            0                       # Class of executed instruction. (Count)
system.atomicCpu0.exec_context.thread_0.statExecutedInstType::SimdFloatMultAcc            0                       # Class of executed instruction. (Count)
system.atomicCpu0.exec_context.thread_0.statExecutedInstType::SimdFloatSqrt            0                       # Class of executed instruction. (Count)
system.atomicCpu0.exec_context.thread_0.statExecutedInstType::SimdReduceAdd            0                       # Class of executed instruction. (Count)
system.atomicCpu0.exec_context.thread_0.statExecutedInstType::SimdReduceAlu            0                       # Class of executed instruction. (Count)
system.atomicCpu0.exec_context.thread_0.statExecutedInstType::SimdReduceCmp            0                       # Class of executed instruction. (Count)
system.atomicCpu0.exec_context.thread_0.statExecutedInstType::SimdFloatReduceAdd            0                       # Class of executed instruction. (Count)
system.atomicCpu0.exec_context.thread_0.statExecutedInstType::SimdFloatReduceCmp            0                       # Class of executed instruction. (Count)
system.atomicCpu0.exec_context.thread_0.statExecutedInstType::SimdAes            0                       # Class of executed instruction. (Count)
system.atomicCpu0.exec_context.thread_0.statExecutedInstType::SimdAesMix            0                       # Class of executed instruction. (Count)
system.atomicCpu0.exec_context.thread_0.statExecutedInstType::SimdSha1Hash            0                       # Class of executed instruction. (Count)
system.atomicCpu0.exec_context.thread_0.statExecutedInstType::SimdSha1Hash2            0                       # Class of executed instruction. (Count)
system.atomicCpu0.exec_context.thread_0.statExecutedInstType::SimdSha256Hash            0                       # Class of executed instruction. (Count)
system.atomicCpu0.exec_context.thread_0.statExecutedInstType::SimdSha256Hash2            0                       # Class of executed instruction. (Count)
system.atomicCpu0.exec_context.thread_0.statExecutedInstType::SimdShaSigma2            0                       # Class of executed instruction. (Count)
system.atomicCpu0.exec_context.thread_0.statExecutedInstType::SimdShaSigma3            0                       # Class of executed instruction. (Count)
system.atomicCpu0.exec_context.thread_0.statExecutedInstType::SimdPredAlu            0                       # Class of executed instruction. (Count)
system.atomicCpu0.exec_context.thread_0.statExecutedInstType::MemRead            0                       # Class of executed instruction. (Count)
system.atomicCpu0.exec_context.thread_0.statExecutedInstType::MemWrite            0                       # Class of executed instruction. (Count)
system.atomicCpu0.exec_context.thread_0.statExecutedInstType::FloatMemRead            0                       # Class of executed instruction. (Count)
system.atomicCpu0.exec_context.thread_0.statExecutedInstType::FloatMemWrite            0                       # Class of executed instruction. (Count)
system.atomicCpu0.exec_context.thread_0.statExecutedInstType::IprAccess            0                       # Class of executed instruction. (Count)
system.atomicCpu0.exec_context.thread_0.statExecutedInstType::InstPrefetch            0                       # Class of executed instruction. (Count)
system.atomicCpu0.exec_context.thread_0.statExecutedInstType::total            0                       # Class of executed instruction. (Count)
system.atomicCpu0.mmu.dtb.rdAccesses                0                       # TLB accesses on read requests (Count)
system.atomicCpu0.mmu.dtb.wrAccesses                0                       # TLB accesses on write requests (Count)
system.atomicCpu0.mmu.dtb.rdMisses                  0                       # TLB misses on read requests (Count)
system.atomicCpu0.mmu.dtb.wrMisses                  0                       # TLB misses on write requests (Count)
system.atomicCpu0.mmu.dtb.walker.power_state.pwrStateResidencyTicks::UNDEFINED 22779924172250                       # Cumulative time (in ticks) in various power states (Tick)
system.atomicCpu0.mmu.itb.rdAccesses                0                       # TLB accesses on read requests (Count)
system.atomicCpu0.mmu.itb.wrAccesses                0                       # TLB accesses on write requests (Count)
system.atomicCpu0.mmu.itb.rdMisses                  0                       # TLB misses on read requests (Count)
system.atomicCpu0.mmu.itb.wrMisses                  0                       # TLB misses on write requests (Count)
system.atomicCpu0.mmu.itb.walker.power_state.pwrStateResidencyTicks::UNDEFINED 22779924172250                       # Cumulative time (in ticks) in various power states (Tick)
system.atomicCpu0.power_state.pwrStateResidencyTicks::OFF 22779924172250                       # Cumulative time (in ticks) in various power states (Tick)
system.atomicCpu0.thread_0.numInsts                 0                       # Number of Instructions committed (Count)
system.atomicCpu0.thread_0.numOps                   0                       # Number of Ops committed (Count)
system.atomicCpu0.thread_0.numMemRefs               0                       # Number of Memory References (Count)
system.atomicCpu1.numCycles                         0                       # Number of cpu cycles simulated (Cycle)
system.atomicCpu1.numWorkItemsStarted               0                       # Number of work items this cpu started (Count)
system.atomicCpu1.numWorkItemsCompleted             0                       # Number of work items this cpu completed (Count)
system.atomicCpu1.exec_context.thread_0.numInsts            0                       # Number of instructions committed (Count)
system.atomicCpu1.exec_context.thread_0.numOps            0                       # Number of ops (including micro ops) committed (Count)
system.atomicCpu1.exec_context.thread_0.numIntAluAccesses            0                       # Number of integer alu accesses (Count)
system.atomicCpu1.exec_context.thread_0.numFpAluAccesses            0                       # Number of float alu accesses (Count)
system.atomicCpu1.exec_context.thread_0.numVecAluAccesses            0                       # Number of vector alu accesses (Count)
system.atomicCpu1.exec_context.thread_0.numCallsReturns            0                       # Number of times a function call or return occured (Count)
system.atomicCpu1.exec_context.thread_0.numCondCtrlInsts            0                       # Number of instructions that are conditional controls (Count)
system.atomicCpu1.exec_context.thread_0.numIntInsts            0                       # Number of integer instructions (Count)
system.atomicCpu1.exec_context.thread_0.numFpInsts            0                       # Number of float instructions (Count)
system.atomicCpu1.exec_context.thread_0.numVecInsts            0                       # Number of vector instructions (Count)
system.atomicCpu1.exec_context.thread_0.numIntRegReads            0                       # Number of times the integer registers were read (Count)
system.atomicCpu1.exec_context.thread_0.numIntRegWrites            0                       # Number of times the integer registers were written (Count)
system.atomicCpu1.exec_context.thread_0.numFpRegReads            0                       # Number of times the floating registers were read (Count)
system.atomicCpu1.exec_context.thread_0.numFpRegWrites            0                       # Number of times the floating registers were written (Count)
system.atomicCpu1.exec_context.thread_0.numVecRegReads            0                       # Number of times the vector registers were read (Count)
system.atomicCpu1.exec_context.thread_0.numVecRegWrites            0                       # Number of times the vector registers were written (Count)
system.atomicCpu1.exec_context.thread_0.numVecPredRegReads            0                       # Number of times the predicate registers were read (Count)
system.atomicCpu1.exec_context.thread_0.numVecPredRegWrites            0                       # Number of times the predicate registers were written (Count)
system.atomicCpu1.exec_context.thread_0.numMiscRegReads            0                       # Number of times the Misc registers were read (Count)
system.atomicCpu1.exec_context.thread_0.numMiscRegWrites            0                       # Number of times the Misc registers were written (Count)
system.atomicCpu1.exec_context.thread_0.numMemRefs            0                       # Number of memory refs (Count)
system.atomicCpu1.exec_context.thread_0.numLoadInsts            0                       # Number of load instructions (Count)
system.atomicCpu1.exec_context.thread_0.numStoreInsts            0                       # Number of store instructions (Count)
system.atomicCpu1.exec_context.thread_0.numIdleCycles            0                       # Number of idle cycles (Cycle)
system.atomicCpu1.exec_context.thread_0.numBusyCycles            0                       # Number of busy cycles (Cycle)
system.atomicCpu1.exec_context.thread_0.notIdleFraction            0                       # Percentage of non-idle cycles (Ratio)
system.atomicCpu1.exec_context.thread_0.idleFraction            1                       # Percentage of idle cycles (Ratio)
system.atomicCpu1.exec_context.thread_0.statExecutedInstType::No_OpClass            0                       # Class of executed instruction. (Count)
system.atomicCpu1.exec_context.thread_0.statExecutedInstType::IntAlu            0                       # Class of executed instruction. (Count)
system.atomicCpu1.exec_context.thread_0.statExecutedInstType::IntMult            0                       # Class of executed instruction. (Count)
system.atomicCpu1.exec_context.thread_0.statExecutedInstType::IntDiv            0                       # Class of executed instruction. (Count)
system.atomicCpu1.exec_context.thread_0.statExecutedInstType::FloatAdd            0                       # Class of executed instruction. (Count)
system.atomicCpu1.exec_context.thread_0.statExecutedInstType::FloatCmp            0                       # Class of executed instruction. (Count)
system.atomicCpu1.exec_context.thread_0.statExecutedInstType::FloatCvt            0                       # Class of executed instruction. (Count)
system.atomicCpu1.exec_context.thread_0.statExecutedInstType::FloatMult            0                       # Class of executed instruction. (Count)
system.atomicCpu1.exec_context.thread_0.statExecutedInstType::FloatMultAcc            0                       # Class of executed instruction. (Count)
system.atomicCpu1.exec_context.thread_0.statExecutedInstType::FloatDiv            0                       # Class of executed instruction. (Count)
system.atomicCpu1.exec_context.thread_0.statExecutedInstType::FloatMisc            0                       # Class of executed instruction. (Count)
system.atomicCpu1.exec_context.thread_0.statExecutedInstType::FloatSqrt            0                       # Class of executed instruction. (Count)
system.atomicCpu1.exec_context.thread_0.statExecutedInstType::SimdAdd            0                       # Class of executed instruction. (Count)
system.atomicCpu1.exec_context.thread_0.statExecutedInstType::SimdAddAcc            0                       # Class of executed instruction. (Count)
system.atomicCpu1.exec_context.thread_0.statExecutedInstType::SimdAlu            0                       # Class of executed instruction. (Count)
system.atomicCpu1.exec_context.thread_0.statExecutedInstType::SimdCmp            0                       # Class of executed instruction. (Count)
system.atomicCpu1.exec_context.thread_0.statExecutedInstType::SimdCvt            0                       # Class of executed instruction. (Count)
system.atomicCpu1.exec_context.thread_0.statExecutedInstType::SimdMisc            0                       # Class of executed instruction. (Count)
system.atomicCpu1.exec_context.thread_0.statExecutedInstType::SimdMult            0                       # Class of executed instruction. (Count)
system.atomicCpu1.exec_context.thread_0.statExecutedInstType::SimdMultAcc            0                       # Class of executed instruction. (Count)
system.atomicCpu1.exec_context.thread_0.statExecutedInstType::SimdShift            0                       # Class of executed instruction. (Count)
system.atomicCpu1.exec_context.thread_0.statExecutedInstType::SimdShiftAcc            0                       # Class of executed instruction. (Count)
system.atomicCpu1.exec_context.thread_0.statExecutedInstType::SimdDiv            0                       # Class of executed instruction. (Count)
system.atomicCpu1.exec_context.thread_0.statExecutedInstType::SimdSqrt            0                       # Class of executed instruction. (Count)
system.atomicCpu1.exec_context.thread_0.statExecutedInstType::SimdFloatAdd            0                       # Class of executed instruction. (Count)
system.atomicCpu1.exec_context.thread_0.statExecutedInstType::SimdFloatAlu            0                       # Class of executed instruction. (Count)
system.atomicCpu1.exec_context.thread_0.statExecutedInstType::SimdFloatCmp            0                       # Class of executed instruction. (Count)
system.atomicCpu1.exec_context.thread_0.statExecutedInstType::SimdFloatCvt            0                       # Class of executed instruction. (Count)
system.atomicCpu1.exec_context.thread_0.statExecutedInstType::SimdFloatDiv            0                       # Class of executed instruction. (Count)
system.atomicCpu1.exec_context.thread_0.statExecutedInstType::SimdFloatMisc            0                       # Class of executed instruction. (Count)
system.atomicCpu1.exec_context.thread_0.statExecutedInstType::SimdFloatMult            0                       # Class of executed instruction. (Count)
system.atomicCpu1.exec_context.thread_0.statExecutedInstType::SimdFloatMultAcc            0                       # Class of executed instruction. (Count)
system.atomicCpu1.exec_context.thread_0.statExecutedInstType::SimdFloatSqrt            0                       # Class of executed instruction. (Count)
system.atomicCpu1.exec_context.thread_0.statExecutedInstType::SimdReduceAdd            0                       # Class of executed instruction. (Count)
system.atomicCpu1.exec_context.thread_0.statExecutedInstType::SimdReduceAlu            0                       # Class of executed instruction. (Count)
system.atomicCpu1.exec_context.thread_0.statExecutedInstType::SimdReduceCmp            0                       # Class of executed instruction. (Count)
system.atomicCpu1.exec_context.thread_0.statExecutedInstType::SimdFloatReduceAdd            0                       # Class of executed instruction. (Count)
system.atomicCpu1.exec_context.thread_0.statExecutedInstType::SimdFloatReduceCmp            0                       # Class of executed instruction. (Count)
system.atomicCpu1.exec_context.thread_0.statExecutedInstType::SimdAes            0                       # Class of executed instruction. (Count)
system.atomicCpu1.exec_context.thread_0.statExecutedInstType::SimdAesMix            0                       # Class of executed instruction. (Count)
system.atomicCpu1.exec_context.thread_0.statExecutedInstType::SimdSha1Hash            0                       # Class of executed instruction. (Count)
system.atomicCpu1.exec_context.thread_0.statExecutedInstType::SimdSha1Hash2            0                       # Class of executed instruction. (Count)
system.atomicCpu1.exec_context.thread_0.statExecutedInstType::SimdSha256Hash            0                       # Class of executed instruction. (Count)
system.atomicCpu1.exec_context.thread_0.statExecutedInstType::SimdSha256Hash2            0                       # Class of executed instruction. (Count)
system.atomicCpu1.exec_context.thread_0.statExecutedInstType::SimdShaSigma2            0                       # Class of executed instruction. (Count)
system.atomicCpu1.exec_context.thread_0.statExecutedInstType::SimdShaSigma3            0                       # Class of executed instruction. (Count)
system.atomicCpu1.exec_context.thread_0.statExecutedInstType::SimdPredAlu            0                       # Class of executed instruction. (Count)
system.atomicCpu1.exec_context.thread_0.statExecutedInstType::MemRead            0                       # Class of executed instruction. (Count)
system.atomicCpu1.exec_context.thread_0.statExecutedInstType::MemWrite            0                       # Class of executed instruction. (Count)
system.atomicCpu1.exec_context.thread_0.statExecutedInstType::FloatMemRead            0                       # Class of executed instruction. (Count)
system.atomicCpu1.exec_context.thread_0.statExecutedInstType::FloatMemWrite            0                       # Class of executed instruction. (Count)
system.atomicCpu1.exec_context.thread_0.statExecutedInstType::IprAccess            0                       # Class of executed instruction. (Count)
system.atomicCpu1.exec_context.thread_0.statExecutedInstType::InstPrefetch            0                       # Class of executed instruction. (Count)
system.atomicCpu1.exec_context.thread_0.statExecutedInstType::total            0                       # Class of executed instruction. (Count)
system.atomicCpu1.mmu.dtb.rdAccesses                0                       # TLB accesses on read requests (Count)
system.atomicCpu1.mmu.dtb.wrAccesses                0                       # TLB accesses on write requests (Count)
system.atomicCpu1.mmu.dtb.rdMisses                  0                       # TLB misses on read requests (Count)
system.atomicCpu1.mmu.dtb.wrMisses                  0                       # TLB misses on write requests (Count)
system.atomicCpu1.mmu.dtb.walker.power_state.pwrStateResidencyTicks::UNDEFINED 22779924172250                       # Cumulative time (in ticks) in various power states (Tick)
system.atomicCpu1.mmu.itb.rdAccesses                0                       # TLB accesses on read requests (Count)
system.atomicCpu1.mmu.itb.wrAccesses                0                       # TLB accesses on write requests (Count)
system.atomicCpu1.mmu.itb.rdMisses                  0                       # TLB misses on read requests (Count)
system.atomicCpu1.mmu.itb.wrMisses                  0                       # TLB misses on write requests (Count)
system.atomicCpu1.mmu.itb.walker.power_state.pwrStateResidencyTicks::UNDEFINED 22779924172250                       # Cumulative time (in ticks) in various power states (Tick)
system.atomicCpu1.power_state.pwrStateResidencyTicks::OFF 22779924172250                       # Cumulative time (in ticks) in various power states (Tick)
system.atomicCpu1.thread_0.numInsts                 0                       # Number of Instructions committed (Count)
system.atomicCpu1.thread_0.numOps                   0                       # Number of Ops committed (Count)
system.atomicCpu1.thread_0.numMemRefs               0                       # Number of Memory References (Count)
system.caches.delayHistogram::bucket_size           64                       # delay histogram for all message (Unspecified)
system.caches.delayHistogram::max_bucket          639                       # delay histogram for all message (Unspecified)
system.caches.delayHistogram::samples       146837995                       # delay histogram for all message (Unspecified)
system.caches.delayHistogram::mean           0.546161                       # delay histogram for all message (Unspecified)
system.caches.delayHistogram::stdev          2.025938                       # delay histogram for all message (Unspecified)
system.caches.delayHistogram             |   146837909    100.00%    100.00% |          84      0.00%    100.00% |           0      0.00%    100.00% |           0      0.00%    100.00% |           0      0.00%    100.00% |           0      0.00%    100.00% |           1      0.00%    100.00% |           0      0.00%    100.00% |           1      0.00%    100.00% |           0      0.00%    100.00% # delay histogram for all message (Unspecified)
system.caches.delayHistogram::total         146837995                       # delay histogram for all message (Unspecified)
system.caches.m_outstandReqHistSeqr::bucket_size            1                       (Unspecified)
system.caches.m_outstandReqHistSeqr::max_bucket            9                       (Unspecified)
system.caches.m_outstandReqHistSeqr::samples   2072729209                       (Unspecified)
system.caches.m_outstandReqHistSeqr::mean            1                       (Unspecified)
system.caches.m_outstandReqHistSeqr::gmean            1                       (Unspecified)
system.caches.m_outstandReqHistSeqr      |           0      0.00%      0.00% |  2072729209    100.00%    100.00% |           0      0.00%    100.00% |           0      0.00%    100.00% |           0      0.00%    100.00% |           0      0.00%    100.00% |           0      0.00%    100.00% |           0      0.00%    100.00% |           0      0.00%    100.00% |           0      0.00%    100.00% (Unspecified)
system.caches.m_outstandReqHistSeqr::total   2072729209                       (Unspecified)
system.caches.m_latencyHistSeqr::bucket_size          512                       (Unspecified)
system.caches.m_latencyHistSeqr::max_bucket         5119                       (Unspecified)
system.caches.m_latencyHistSeqr::samples   2072729207                       (Unspecified)
system.caches.m_latencyHistSeqr::mean        6.691904                       (Unspecified)
system.caches.m_latencyHistSeqr::gmean       1.063163                       (Unspecified)
system.caches.m_latencyHistSeqr::stdev      65.343290                       (Unspecified)
system.caches.m_latencyHistSeqr          |  2060318164     99.40%     99.40% |    11809512      0.57%     99.97% |      172832      0.01%     99.98% |      287906      0.01%     99.99% |      138560      0.01%    100.00% |        2228      0.00%    100.00% |           5      0.00%    100.00% |           0      0.00%    100.00% |           0      0.00%    100.00% |           0      0.00%    100.00% (Unspecified)
system.caches.m_latencyHistSeqr::total     2072729207                       (Unspecified)
system.caches.m_hitLatencyHistSeqr::bucket_size            1                       (Unspecified)
system.caches.m_hitLatencyHistSeqr::max_bucket            9                       (Unspecified)
system.caches.m_hitLatencyHistSeqr::samples   2050378832                       (Unspecified)
system.caches.m_hitLatencyHistSeqr::mean            1                       (Unspecified)
system.caches.m_hitLatencyHistSeqr::gmean            1                       (Unspecified)
system.caches.m_hitLatencyHistSeqr       |           0      0.00%      0.00% |  2050378832    100.00%    100.00% |           0      0.00%    100.00% |           0      0.00%    100.00% |           0      0.00%    100.00% |           0      0.00%    100.00% |           0      0.00%    100.00% |           0      0.00%    100.00% |           0      0.00%    100.00% |           0      0.00%    100.00% (Unspecified)
system.caches.m_hitLatencyHistSeqr::total   2050378832                       (Unspecified)
system.caches.m_missLatencyHistSeqr::bucket_size          512                       (Unspecified)
system.caches.m_missLatencyHistSeqr::max_bucket         5119                       (Unspecified)
system.caches.m_missLatencyHistSeqr::samples     22350375                       (Unspecified)
system.caches.m_missLatencyHistSeqr::mean   528.855842                       (Unspecified)
system.caches.m_missLatencyHistSeqr::gmean   292.972986                       (Unspecified)
system.caches.m_missLatencyHistSeqr::stdev   346.901143                       (Unspecified)
system.caches.m_missLatencyHistSeqr      |     9939332     44.47%     44.47% |    11809512     52.84%     97.31% |      172832      0.77%     98.08% |      287906      1.29%     99.37% |      138560      0.62%     99.99% |        2228      0.01%    100.00% |           5      0.00%    100.00% |           0      0.00%    100.00% |           0      0.00%    100.00% |           0      0.00%    100.00% (Unspecified)
system.caches.m_missLatencyHistSeqr::total     22350375                       (Unspecified)
system.caches.delayVCHist.vnet_0::bucket_size           64                       # delay histogram for vnet_0 (Unspecified)
system.caches.delayVCHist.vnet_0::max_bucket          639                       # delay histogram for vnet_0 (Unspecified)
system.caches.delayVCHist.vnet_0::samples     66616593                       # delay histogram for vnet_0 (Unspecified)
system.caches.delayVCHist.vnet_0::mean       1.203427                       # delay histogram for vnet_0 (Unspecified)
system.caches.delayVCHist.vnet_0::stdev      2.872963                       # delay histogram for vnet_0 (Unspecified)
system.caches.delayVCHist.vnet_0         |    66616507    100.00%    100.00% |          84      0.00%    100.00% |           0      0.00%    100.00% |           0      0.00%    100.00% |           0      0.00%    100.00% |           0      0.00%    100.00% |           1      0.00%    100.00% |           0      0.00%    100.00% |           1      0.00%    100.00% |           0      0.00%    100.00% # delay histogram for vnet_0 (Unspecified)
system.caches.delayVCHist.vnet_0::total      66616593                       # delay histogram for vnet_0 (Unspecified)
system.caches.delayVCHist.vnet_1::bucket_size            2                       # delay histogram for vnet_1 (Unspecified)
system.caches.delayVCHist.vnet_1::max_bucket           19                       # delay histogram for vnet_1 (Unspecified)
system.caches.delayVCHist.vnet_1::samples     80101169                       # delay histogram for vnet_1 (Unspecified)
system.caches.delayVCHist.vnet_1::mean       0.000361                       # delay histogram for vnet_1 (Unspecified)
system.caches.delayVCHist.vnet_1::stdev      0.044885                       # delay histogram for vnet_1 (Unspecified)
system.caches.delayVCHist.vnet_1         |    80094953     99.99%     99.99% |        1679      0.00%     99.99% |        1824      0.00%    100.00% |        1722      0.00%    100.00% |         989      0.00%    100.00% |           2      0.00%    100.00% |           0      0.00%    100.00% |           0      0.00%    100.00% |           0      0.00%    100.00% |           0      0.00%    100.00% # delay histogram for vnet_1 (Unspecified)
system.caches.delayVCHist.vnet_1::total      80101169                       # delay histogram for vnet_1 (Unspecified)
system.caches.delayVCHist.vnet_2::bucket_size            1                       # delay histogram for vnet_2 (Unspecified)
system.caches.delayVCHist.vnet_2::max_bucket            9                       # delay histogram for vnet_2 (Unspecified)
system.caches.delayVCHist.vnet_2::samples       120233                       # delay histogram for vnet_2 (Unspecified)
system.caches.delayVCHist.vnet_2::mean       0.000715                       # delay histogram for vnet_2 (Unspecified)
system.caches.delayVCHist.vnet_2::stdev      0.047907                       # delay histogram for vnet_2 (Unspecified)
system.caches.delayVCHist.vnet_2         |      120200     99.97%     99.97% |           0      0.00%     99.97% |          26      0.02%     99.99% |           0      0.00%     99.99% |           4      0.00%    100.00% |           0      0.00%    100.00% |           3      0.00%    100.00% |           0      0.00%    100.00% |           0      0.00%    100.00% |           0      0.00%    100.00% # delay histogram for vnet_2 (Unspecified)
system.caches.delayVCHist.vnet_2::total        120233                       # delay histogram for vnet_2 (Unspecified)
system.caches.L1Cache_Controller.Load    |   171628085     50.10%     50.10% |   170941960     49.90%    100.00% (Unspecified)
system.caches.L1Cache_Controller.Load::total    342570045                       (Unspecified)
system.caches.L1Cache_Controller.Ifetch  |   789805097     50.06%     50.06% |   788059140     49.94%    100.00% (Unspecified)
system.caches.L1Cache_Controller.Ifetch::total   1577864237                       (Unspecified)
system.caches.L1Cache_Controller.Store   |    76198510     50.03%     50.03% |    76096417     49.97%    100.00% (Unspecified)
system.caches.L1Cache_Controller.Store::total    152294927                       (Unspecified)
system.caches.L1Cache_Controller.Inv     |       48858     47.62%     47.62% |       53740     52.38%    100.00% (Unspecified)
system.caches.L1Cache_Controller.Inv::total       102598                       (Unspecified)
system.caches.L1Cache_Controller.L1_Replacement |    11088568     49.89%     49.89% |    11138933     50.11%    100.00% (Unspecified)
system.caches.L1Cache_Controller.L1_Replacement::total     22227501                       (Unspecified)
system.caches.L1Cache_Controller.Fwd_GETX |          66     18.91%     18.91% |         283     81.09%    100.00% (Unspecified)
system.caches.L1Cache_Controller.Fwd_GETX::total          349                       (Unspecified)
system.caches.L1Cache_Controller.Fwd_GETS |       14604     84.48%     84.48% |        2682     15.52%    100.00% (Unspecified)
system.caches.L1Cache_Controller.Fwd_GETS::total        17286                       (Unspecified)
system.caches.L1Cache_Controller.Data    |         759     99.74%     99.74% |           2      0.26%    100.00% (Unspecified)
system.caches.L1Cache_Controller.Data::total          761                       (Unspecified)
system.caches.L1Cache_Controller.Data_Exclusive |     8217520     49.89%     49.89% |     8255093     50.11%    100.00% (Unspecified)
system.caches.L1Cache_Controller.Data_Exclusive::total     16472613                       (Unspecified)
system.caches.L1Cache_Controller.DataS_fromL1 |        2682     15.52%     15.52% |       14604     84.48%    100.00% (Unspecified)
system.caches.L1Cache_Controller.DataS_fromL1::total        17286                       (Unspecified)
system.caches.L1Cache_Controller.Data_all_Acks |     2919188     49.93%     49.93% |     2927347     50.07%    100.00% (Unspecified)
system.caches.L1Cache_Controller.Data_all_Acks::total      5846535                       (Unspecified)
system.caches.L1Cache_Controller.Ack     |       12972     98.42%     98.42% |         208      1.58%    100.00% (Unspecified)
system.caches.L1Cache_Controller.Ack::total        13180                       (Unspecified)
system.caches.L1Cache_Controller.Ack_all |       13731     98.49%     98.49% |         210      1.51%    100.00% (Unspecified)
system.caches.L1Cache_Controller.Ack_all::total        13941                       (Unspecified)
system.caches.L1Cache_Controller.WB_Ack  |    11005261     49.80%     49.80% |    11092564     50.20%    100.00% (Unspecified)
system.caches.L1Cache_Controller.WB_Ack::total     22097825                       (Unspecified)
system.caches.L1Cache_Controller.NP.Load |     8224645     49.88%     49.88% |     8264438     50.12%    100.00% (Unspecified)
system.caches.L1Cache_Controller.NP.Load::total     16489083                       (Unspecified)
system.caches.L1Cache_Controller.NP.Ifetch |       67043     69.46%     69.46% |       29471     30.54%    100.00% (Unspecified)
system.caches.L1Cache_Controller.NP.Ifetch::total        96514                       (Unspecified)
system.caches.L1Cache_Controller.NP.Store |     2805581     49.57%     49.57% |     2853714     50.43%    100.00% (Unspecified)
system.caches.L1Cache_Controller.NP.Store::total      5659295                       (Unspecified)
system.caches.L1Cache_Controller.NP.Inv  |        2008     51.49%     51.49% |        1892     48.51%    100.00% (Unspecified)
system.caches.L1Cache_Controller.NP.Inv::total         3900                       (Unspecified)
system.caches.L1Cache_Controller.I.Load  |       10219     31.89%     31.89% |       21828     68.11%    100.00% (Unspecified)
system.caches.L1Cache_Controller.I.Load::total        32047                       (Unspecified)
system.caches.L1Cache_Controller.I.Ifetch |       29247     53.92%     53.92% |       24995     46.08%    100.00% (Unspecified)
system.caches.L1Cache_Controller.I.Ifetch::total        54242                       (Unspecified)
system.caches.L1Cache_Controller.I.Store |        3415     56.78%     56.78% |        2599     43.22%    100.00% (Unspecified)
system.caches.L1Cache_Controller.I.Store::total         6014                       (Unspecified)
system.caches.L1Cache_Controller.I.L1_Replacement |        3766     60.93%     60.93% |        2415     39.07%    100.00% (Unspecified)
system.caches.L1Cache_Controller.I.L1_Replacement::total         6181                       (Unspecified)
system.caches.L1Cache_Controller.S.Load  |      421754     44.99%     44.99% |      515662     55.01%    100.00% (Unspecified)
system.caches.L1Cache_Controller.S.Load::total       937416                       (Unspecified)
system.caches.L1Cache_Controller.S.Ifetch |   789708807     50.05%     50.05% |   788004674     49.95%    100.00% (Unspecified)
system.caches.L1Cache_Controller.S.Ifetch::total   1577713481                       (Unspecified)
system.caches.L1Cache_Controller.S.Store |       12972     98.41%     98.41% |         210      1.59%    100.00% (Unspecified)
system.caches.L1Cache_Controller.S.Store::total        13182                       (Unspecified)
system.caches.L1Cache_Controller.S.Inv   |       35410     44.66%     44.66% |       43873     55.34%    100.00% (Unspecified)
system.caches.L1Cache_Controller.S.Inv::total        79283                       (Unspecified)
system.caches.L1Cache_Controller.S.L1_Replacement |       79541     64.41%     64.41% |       43953     35.59%    100.00% (Unspecified)
system.caches.L1Cache_Controller.S.L1_Replacement::total       123494                       (Unspecified)
system.caches.L1Cache_Controller.E.Load  |    73366443     52.29%     52.29% |    66944964     47.71%    100.00% (Unspecified)
system.caches.L1Cache_Controller.E.Load::total    140311407                       (Unspecified)
system.caches.L1Cache_Controller.E.Store |     2152446     50.03%     50.03% |     2150121     49.97%    100.00% (Unspecified)
system.caches.L1Cache_Controller.E.Store::total      4302567                       (Unspecified)
system.caches.L1Cache_Controller.E.Inv   |        6013     59.93%     59.93% |        4021     40.07%    100.00% (Unspecified)
system.caches.L1Cache_Controller.E.Inv::total        10034                       (Unspecified)
system.caches.L1Cache_Controller.E.L1_Replacement |     6052683     49.84%     49.84% |     6092509     50.16%    100.00% (Unspecified)
system.caches.L1Cache_Controller.E.L1_Replacement::total     12145192                       (Unspecified)
system.caches.L1Cache_Controller.E.Fwd_GETX |           1      0.38%      0.38% |         264     99.62%    100.00% (Unspecified)
system.caches.L1Cache_Controller.E.Fwd_GETX::total          265                       (Unspecified)
system.caches.L1Cache_Controller.E.Fwd_GETS |         836     24.61%     24.61% |        2561     75.39%    100.00% (Unspecified)
system.caches.L1Cache_Controller.E.Fwd_GETS::total         3397                       (Unspecified)
system.caches.L1Cache_Controller.M.Load  |    89605024     48.49%     48.49% |    95195068     51.51%    100.00% (Unspecified)
system.caches.L1Cache_Controller.M.Load::total    184800092                       (Unspecified)
system.caches.L1Cache_Controller.M.Store |    71224096     50.05%     50.05% |    71089773     49.95%    100.00% (Unspecified)
system.caches.L1Cache_Controller.M.Store::total    142313869                       (Unspecified)
system.caches.L1Cache_Controller.M.Inv   |        5427     57.86%     57.86% |        3952     42.14%    100.00% (Unspecified)
system.caches.L1Cache_Controller.M.Inv::total         9379                       (Unspecified)
system.caches.L1Cache_Controller.M.L1_Replacement |     4952578     49.76%     49.76% |     5000056     50.24%    100.00% (Unspecified)
system.caches.L1Cache_Controller.M.L1_Replacement::total      9952634                       (Unspecified)
system.caches.L1Cache_Controller.M.Fwd_GETX |          65     77.38%     77.38% |          19     22.62%    100.00% (Unspecified)
system.caches.L1Cache_Controller.M.Fwd_GETX::total           84                       (Unspecified)
system.caches.L1Cache_Controller.M.Fwd_GETS |       13768     99.13%     99.13% |         121      0.87%    100.00% (Unspecified)
system.caches.L1Cache_Controller.M.Fwd_GETS::total        13889                       (Unspecified)
system.caches.L1Cache_Controller.IS.Data_Exclusive |     8217520     49.89%     49.89% |     8255093     50.11%    100.00% (Unspecified)
system.caches.L1Cache_Controller.IS.Data_Exclusive::total     16472613                       (Unspecified)
system.caches.L1Cache_Controller.IS.DataS_fromL1 |        2682     15.52%     15.52% |       14604     84.48%    100.00% (Unspecified)
system.caches.L1Cache_Controller.IS.DataS_fromL1::total        17286                       (Unspecified)
system.caches.L1Cache_Controller.IS.Data_all_Acks |      110951     60.97%     60.97% |       71034     39.03%    100.00% (Unspecified)
system.caches.L1Cache_Controller.IS.Data_all_Acks::total       181985                       (Unspecified)
system.caches.L1Cache_Controller.IM.Data |         759     99.74%     99.74% |           2      0.26%    100.00% (Unspecified)
system.caches.L1Cache_Controller.IM.Data::total          761                       (Unspecified)
system.caches.L1Cache_Controller.IM.Data_all_Acks |     2808237     49.58%     49.58% |     2856313     50.42%    100.00% (Unspecified)
system.caches.L1Cache_Controller.IM.Data_all_Acks::total      5664550                       (Unspecified)
system.caches.L1Cache_Controller.SM.Inv  |           0      0.00%      0.00% |           2    100.00%    100.00% (Unspecified)
system.caches.L1Cache_Controller.SM.Inv::total            2                       (Unspecified)
system.caches.L1Cache_Controller.SM.Ack  |       12972     98.42%     98.42% |         208      1.58%    100.00% (Unspecified)
system.caches.L1Cache_Controller.SM.Ack::total        13180                       (Unspecified)
system.caches.L1Cache_Controller.SM.Ack_all |       13731     98.49%     98.49% |         210      1.51%    100.00% (Unspecified)
system.caches.L1Cache_Controller.SM.Ack_all::total        13941                       (Unspecified)
system.caches.L1Cache_Controller.M_I.WB_Ack |    11005261     49.80%     49.80% |    11092564     50.20%    100.00% (Unspecified)
system.caches.L1Cache_Controller.M_I.WB_Ack::total     22097825                       (Unspecified)
system.caches.Directory_Controller.Fetch     17830892      0.00%      0.00% (Unspecified)
system.caches.Directory_Controller.Data       7790577      0.00%      0.00% (Unspecified)
system.caches.Directory_Controller.Memory_Data     17830921      0.00%      0.00% (Unspecified)
system.caches.Directory_Controller.Memory_Ack      7790577      0.00%      0.00% (Unspecified)
system.caches.Directory_Controller.DMA_READ         2404      0.00%      0.00% (Unspecified)
system.caches.Directory_Controller.CleanReplacement      9909243      0.00%      0.00% (Unspecified)
system.caches.Directory_Controller.I.Fetch     17830892      0.00%      0.00% (Unspecified)
system.caches.Directory_Controller.I.DMA_READ           30      0.00%      0.00% (Unspecified)
system.caches.Directory_Controller.ID.Memory_Data           30      0.00%      0.00% (Unspecified)
system.caches.Directory_Controller.M.Data      7788203      0.00%      0.00% (Unspecified)
system.caches.Directory_Controller.M.DMA_READ         2374      0.00%      0.00% (Unspecified)
system.caches.Directory_Controller.M.CleanReplacement      9909243      0.00%      0.00% (Unspecified)
system.caches.Directory_Controller.IM.Memory_Data     17830891      0.00%      0.00% (Unspecified)
system.caches.Directory_Controller.MI.Memory_Ack      7788203      0.00%      0.00% (Unspecified)
system.caches.Directory_Controller.M_DRD.Data         2374      0.00%      0.00% (Unspecified)
system.caches.Directory_Controller.M_DRDI.Memory_Ack         2374      0.00%      0.00% (Unspecified)
system.caches.DMA_Controller.ReadRequest |        2404    100.00%    100.00% |           0      0.00%    100.00% (Unspecified)
system.caches.DMA_Controller.ReadRequest::total         2404                       (Unspecified)
system.caches.DMA_Controller.Data        |        2404    100.00%    100.00% |           0      0.00%    100.00% (Unspecified)
system.caches.DMA_Controller.Data::total         2404                       (Unspecified)
system.caches.DMA_Controller.READY.ReadRequest |        2404    100.00%    100.00% |           0      0.00%    100.00% (Unspecified)
system.caches.DMA_Controller.READY.ReadRequest::total         2404                       (Unspecified)
system.caches.DMA_Controller.BUSY_RD.Data |        2404    100.00%    100.00% |           0      0.00%    100.00% (Unspecified)
system.caches.DMA_Controller.BUSY_RD.Data::total         2404                       (Unspecified)
system.caches.L2Cache_Controller.L1_GET_INSTR |       14311      9.49%      9.49% |       22671     15.04%     24.53% |       20076     13.31%     37.84% |        8218      5.45%     43.29% |       14441      9.58%     52.87% |       20416     13.54%     66.41% |       23871     15.83%     82.24% |       26778     17.76%    100.00% (Unspecified)
system.caches.L2Cache_Controller.L1_GET_INSTR::total       150782                       (Unspecified)
system.caches.L2Cache_Controller.L1_GETS |     2076270     12.56%     12.56% |     2065575     12.50%     25.06% |     2062382     12.48%     37.54% |     2061528     12.47%     50.02% |     2061895     12.48%     62.49% |     2061023     12.47%     74.96% |     2074499     12.55%     87.52% |     2063299     12.48%    100.00% (Unspecified)
system.caches.L2Cache_Controller.L1_GETS::total     16526471                       (Unspecified)
system.caches.L2Cache_Controller.L1_GETX |      709366     12.52%     12.52% |      708070     12.50%     25.02% |      706810     12.48%     37.50% |      707868     12.49%     49.99% |      707269     12.48%     62.47% |      709493     12.52%     75.00% |      707947     12.50%     87.49% |      708540     12.51%    100.00% (Unspecified)
system.caches.L2Cache_Controller.L1_GETX::total      5665363                       (Unspecified)
system.caches.L2Cache_Controller.L1_UPGRADE |        2803     15.95%     15.95% |        1617      9.20%     25.16% |          24      0.14%     25.29% |          24      0.14%     25.43% |          69      0.39%     25.82% |          26      0.15%     25.97% |       12957     73.75%     99.72% |          49      0.28%    100.00% (Unspecified)
system.caches.L2Cache_Controller.L1_UPGRADE::total        17569                       (Unspecified)
system.caches.L2Cache_Controller.L1_PUTX |     2763657     12.51%     12.51% |     2762623     12.50%     25.01% |     2760757     12.49%     37.50% |     2762128     12.50%     50.00% |     2761401     12.50%     62.50% |     2762832     12.50%     75.00% |     2761894     12.50%     87.50% |     2762534     12.50%    100.00% (Unspecified)
system.caches.L2Cache_Controller.L1_PUTX::total     22097826                       (Unspecified)
system.caches.L2Cache_Controller.L2_Replacement |      972772     12.50%     12.50% |      972457     12.50%     25.00% |      972494     12.50%     37.50% |      972397     12.50%     50.00% |      972408     12.50%     62.50% |      972632     12.50%     75.00% |      972548     12.50%     87.50% |      972787     12.50%    100.00% (Unspecified)
system.caches.L2Cache_Controller.L2_Replacement::total      7780495                       (Unspecified)
system.caches.L2Cache_Controller.L2_Replacement_clean |     1240200     12.51%     12.51% |     1240559     12.51%     25.02% |     1239126     12.50%     37.51% |     1238595     12.49%     50.00% |     1239298     12.50%     62.50% |     1240248     12.51%     75.00% |     1238920     12.49%     87.50% |     1240006     12.50%    100.00% (Unspecified)
system.caches.L2Cache_Controller.L2_Replacement_clean::total      9916952                       (Unspecified)
system.caches.L2Cache_Controller.Mem_Data |     2229654     12.50%     12.50% |     2229697     12.50%     25.01% |     2228300     12.50%     37.51% |     2227673     12.49%     50.00% |     2228386     12.50%     62.50% |     2229560     12.50%     75.00% |     2228148     12.50%     87.50% |     2229473     12.50%    100.00% (Unspecified)
system.caches.L2Cache_Controller.Mem_Data::total     17830891                       (Unspecified)
system.caches.L2Cache_Controller.Mem_Ack |     2213271     12.50%     12.50% |     2213313     12.50%     25.01% |     2211916     12.50%     37.51% |     2211289     12.49%     50.00% |     2212002     12.50%     62.50% |     2213176     12.50%     75.00% |     2211764     12.50%     87.50% |     2213089     12.50%    100.00% (Unspecified)
system.caches.L2Cache_Controller.Mem_Ack::total     17699820                       (Unspecified)
system.caches.L2Cache_Controller.WB_Data |        4605     19.79%     19.79% |        2684     11.54%     31.33% |         500      2.15%     33.48% |        1237      5.32%     38.79% |         828      3.56%     42.35% |        1938      8.33%     50.68% |        9805     42.14%     92.82% |        1671      7.18%    100.00% (Unspecified)
system.caches.L2Cache_Controller.WB_Data::total        23268                       (Unspecified)
system.caches.L2Cache_Controller.WB_Data_clean |         616     18.13%     18.13% |         507     14.92%     33.06% |         502     14.78%     47.84% |         304      8.95%     56.79% |         418     12.30%     69.09% |         219      6.45%     75.54% |         290      8.54%     84.07% |         541     15.93%    100.00% (Unspecified)
system.caches.L2Cache_Controller.WB_Data_clean::total         3397                       (Unspecified)
system.caches.L2Cache_Controller.Ack     |        4305     14.04%     14.04% |        4173     13.61%     27.65% |        3878     12.65%     40.30% |        3194     10.42%     50.72% |        3947     12.87%     63.59% |        3974     12.96%     76.55% |        3450     11.25%     87.80% |        3739     12.20%    100.00% (Unspecified)
system.caches.L2Cache_Controller.Ack::total        30660                       (Unspecified)
system.caches.L2Cache_Controller.Ack_all |        6555     13.48%     13.48% |        7030     14.46%     27.94% |        6039     12.42%     40.36% |        5154     10.60%     50.96% |        6295     12.95%     63.91% |        6050     12.44%     76.36% |        5453     11.22%     87.57% |        6042     12.43%    100.00% (Unspecified)
system.caches.L2Cache_Controller.Ack_all::total        48618                       (Unspecified)
system.caches.L2Cache_Controller.Unblock |        4031     23.32%     23.32% |        2044     11.82%     35.14% |         536      3.10%     38.24% |         329      1.90%     40.15% |         498      2.88%     43.03% |         253      1.46%     44.49% |        8996     52.04%     96.53% |         599      3.47%    100.00% (Unspecified)
system.caches.L2Cache_Controller.Unblock::total        17286                       (Unspecified)
system.caches.L2Cache_Controller.Exclusive_Unblock |     2772310     12.52%     12.52% |     2769520     12.50%     25.02% |     2764933     12.48%     37.50% |     2766736     12.49%     49.99% |     2766196     12.49%     62.48% |     2768267     12.50%     74.98% |     2775323     12.53%     87.50% |     2767819     12.50%    100.00% (Unspecified)
system.caches.L2Cache_Controller.Exclusive_Unblock::total     22151104                       (Unspecified)
system.caches.L2Cache_Controller.MEM_Inv |         598     12.59%     12.59% |         594     12.51%     25.11% |         594     12.51%     37.62% |         594     12.51%     50.13% |         592     12.47%     62.59% |         592     12.47%     75.06% |         592     12.47%     87.53% |         592     12.47%    100.00% (Unspecified)
system.caches.L2Cache_Controller.MEM_Inv::total         4748                       (Unspecified)
system.caches.L2Cache_Controller.NP.L1_GET_INSTR |        4459     13.26%     13.26% |        4700     13.98%     27.23% |        4069     12.10%     39.33% |        3643     10.83%     50.17% |        4212     12.52%     62.69% |        4416     13.13%     75.82% |        3860     11.48%     87.30% |        4272     12.70%    100.00% (Unspecified)
system.caches.L2Cache_Controller.NP.L1_GET_INSTR::total        33631                       (Unspecified)
system.caches.L2Cache_Controller.NP.L1_GETS |     1518190     12.50%     12.50% |     1518182     12.50%     25.01% |     1517924     12.50%     37.51% |     1517400     12.50%     50.00% |     1517677     12.50%     62.50% |     1517698     12.50%     75.00% |     1517589     12.50%     87.50% |     1518166     12.50%    100.00% (Unspecified)
system.caches.L2Cache_Controller.NP.L1_GETS::total     12142826                       (Unspecified)
system.caches.L2Cache_Controller.NP.L1_GETX |      707006     12.50%     12.50% |      706815     12.50%     25.00% |      706308     12.49%     37.49% |      706630     12.50%     49.99% |      706497     12.49%     62.49% |      707446     12.51%     75.00% |      706699     12.50%     87.50% |      707035     12.50%    100.00% (Unspecified)
system.caches.L2Cache_Controller.NP.L1_GETX::total      5654436                       (Unspecified)
system.caches.L2Cache_Controller.SS.L1_GET_INSTR |        8424      7.87%      7.87% |       16459     15.37%     23.24% |       14791     13.81%     37.05% |        3467      3.24%     40.29% |        8869      8.28%     48.58% |       14693     13.72%     62.30% |       18898     17.65%     79.95% |       21467     20.05%    100.00% (Unspecified)
system.caches.L2Cache_Controller.SS.L1_GET_INSTR::total       107068                       (Unspecified)
system.caches.L2Cache_Controller.SS.L1_GETS |       11338     41.45%     41.45% |        3109     11.37%     52.81% |        3010     11.00%     63.82% |        1894      6.92%     70.74% |        2161      7.90%     78.64% |        1563      5.71%     84.35% |        1310      4.79%     89.14% |        2970     10.86%    100.00% (Unspecified)
system.caches.L2Cache_Controller.SS.L1_GETS::total        27355                       (Unspecified)
system.caches.L2Cache_Controller.SS.L1_GETX |         613     80.55%     80.55% |           1      0.13%     80.68% |           5      0.66%     81.34% |           0      0.00%     81.34% |           5      0.66%     82.00% |           1      0.13%     82.13% |         131     17.21%     99.34% |           5      0.66%    100.00% (Unspecified)
system.caches.L2Cache_Controller.SS.L1_GETX::total          761                       (Unspecified)
system.caches.L2Cache_Controller.SS.L1_UPGRADE |        2801     21.25%     21.25% |        1617     12.27%     33.52% |          24      0.18%     33.70% |          24      0.18%     33.88% |          69      0.52%     34.41% |          26      0.20%     34.61% |        8570     65.02%     99.63% |          49      0.37%    100.00% (Unspecified)
system.caches.L2Cache_Controller.SS.L1_UPGRADE::total        13180                       (Unspecified)
system.caches.L2Cache_Controller.SS.L2_Replacement |           7     11.11%     11.11% |          11     17.46%     28.57% |           9     14.29%     42.86% |           4      6.35%     49.21% |          11     17.46%     66.67% |           9     14.29%     80.95% |           7     11.11%     92.06% |           5      7.94%    100.00% (Unspecified)
system.caches.L2Cache_Controller.SS.L2_Replacement::total           63                       (Unspecified)
system.caches.L2Cache_Controller.SS.L2_Replacement_clean |        5394     14.00%     14.00% |        5355     13.90%     27.90% |        4884     12.68%     40.58% |        4132     10.73%     51.31% |        4771     12.39%     63.70% |        4810     12.49%     76.18% |        4174     10.84%     87.02% |        5001     12.98%    100.00% (Unspecified)
system.caches.L2Cache_Controller.SS.L2_Replacement_clean::total        38521                       (Unspecified)
system.caches.L2Cache_Controller.M.L1_GETS |      542333     12.52%     12.52% |      541942     12.51%     25.03% |      540538     12.48%     37.51% |      541672     12.50%     50.01% |      541370     12.50%     62.51% |      541272     12.50%     75.01% |      541288     12.50%     87.50% |      541311     12.50%    100.00% (Unspecified)
system.caches.L2Cache_Controller.M.L1_GETS::total      4331726                       (Unspecified)
system.caches.L2Cache_Controller.M.L1_GETX |        1479     15.15%     15.15% |        1231     12.61%     27.75% |         491      5.03%     32.78% |        1216     12.45%     45.23% |         761      7.79%     53.03% |        2027     20.76%     73.78% |        1082     11.08%     84.86% |        1478     15.14%    100.00% (Unspecified)
system.caches.L2Cache_Controller.M.L1_GETX::total         9765                       (Unspecified)
system.caches.L2Cache_Controller.M.L2_Replacement |      972523     12.50%     12.50% |      972253     12.50%     25.00% |      972435     12.50%     37.50% |      972169     12.50%     50.00% |      972245     12.50%     62.50% |      972376     12.50%     75.00% |      972377     12.50%     87.50% |      972495     12.50%    100.00% (Unspecified)
system.caches.L2Cache_Controller.M.L2_Replacement::total      7778873                       (Unspecified)
system.caches.L2Cache_Controller.M.L2_Replacement_clean |     1232950     12.50%     12.50% |     1232834     12.50%     25.00% |     1232928     12.50%     37.50% |     1232702     12.50%     50.00% |     1232665     12.50%     62.50% |     1232795     12.50%     75.00% |     1232787     12.50%     87.50% |     1232892     12.50%    100.00% (Unspecified)
system.caches.L2Cache_Controller.M.L2_Replacement_clean::total      9862553                       (Unspecified)
system.caches.L2Cache_Controller.M.MEM_Inv |          53     13.32%     13.32% |          49     12.31%     25.63% |          49     12.31%     37.94% |          52     13.07%     51.01% |          49     12.31%     63.32% |          51     12.81%     76.13% |          48     12.06%     88.19% |          47     11.81%    100.00% (Unspecified)
system.caches.L2Cache_Controller.M.MEM_Inv::total          398                       (Unspecified)
system.caches.L2Cache_Controller.MT.L1_GETS |        4031     23.32%     23.32% |        2044     11.82%     35.14% |         536      3.10%     38.24% |         329      1.90%     40.15% |         498      2.88%     43.03% |         253      1.46%     44.49% |        8996     52.04%     96.53% |         599      3.47%    100.00% (Unspecified)
system.caches.L2Cache_Controller.MT.L1_GETS::total        17286                       (Unspecified)
system.caches.L2Cache_Controller.MT.L1_GETX |         261     74.79%     74.79% |          16      4.58%     79.37% |           6      1.72%     81.09% |          13      3.72%     84.81% |           2      0.57%     85.39% |          13      3.72%     89.11% |          27      7.74%     96.85% |          11      3.15%    100.00% (Unspecified)
system.caches.L2Cache_Controller.MT.L1_GETX::total          349                       (Unspecified)
system.caches.L2Cache_Controller.MT.L1_PUTX |     2763657     12.51%     12.51% |     2762623     12.50%     25.01% |     2760757     12.49%     37.50% |     2762128     12.50%     50.00% |     2761401     12.50%     62.50% |     2762832     12.50%     75.00% |     2761894     12.50%     87.50% |     2762534     12.50%    100.00% (Unspecified)
system.caches.L2Cache_Controller.MT.L1_PUTX::total     22097826                       (Unspecified)
system.caches.L2Cache_Controller.MT.L2_Replacement |         242     15.52%     15.52% |         193     12.38%     27.90% |          50      3.21%     31.11% |         224     14.37%     45.48% |         152      9.75%     55.23% |         247     15.84%     71.07% |         164     10.52%     81.59% |         287     18.41%    100.00% (Unspecified)
system.caches.L2Cache_Controller.MT.L2_Replacement::total         1559                       (Unspecified)
system.caches.L2Cache_Controller.MT.L2_Replacement_clean |        1856     11.69%     11.69% |        2370     14.93%     26.62% |        1314      8.28%     34.89% |        1761     11.09%     45.98% |        1862     11.73%     57.71% |        2643     16.65%     74.35% |        1959     12.34%     86.69% |        2113     13.31%    100.00% (Unspecified)
system.caches.L2Cache_Controller.MT.L2_Replacement_clean::total        15878                       (Unspecified)
system.caches.L2Cache_Controller.MT.MEM_Inv |         246     12.45%     12.45% |         248     12.55%     25.00% |         248     12.55%     37.55% |         245     12.40%     49.95% |         247     12.50%     62.45% |         245     12.40%     74.85% |         248     12.55%     87.40% |         249     12.60%    100.00% (Unspecified)
system.caches.L2Cache_Controller.MT.MEM_Inv::total         1976                       (Unspecified)
system.caches.L2Cache_Controller.M_I.L1_GET_INSTR |           2      7.69%      7.69% |           2      7.69%     15.38% |           2      7.69%     23.08% |           3     11.54%     34.62% |           8     30.77%     65.38% |           1      3.85%     69.23% |           5     19.23%     88.46% |           3     11.54%    100.00% (Unspecified)
system.caches.L2Cache_Controller.M_I.L1_GET_INSTR::total           26                       (Unspecified)
system.caches.L2Cache_Controller.M_I.L1_GETS |           1      1.23%      1.23% |          11     13.58%     14.81% |          10     12.35%     27.16% |           9     11.11%     38.27% |           2      2.47%     40.74% |          19     23.46%     64.20% |          13     16.05%     80.25% |          16     19.75%    100.00% (Unspecified)
system.caches.L2Cache_Controller.M_I.L1_GETS::total           81                       (Unspecified)
system.caches.L2Cache_Controller.M_I.L1_GETX |           7     14.00%     14.00% |           5     10.00%     24.00% |           0      0.00%     24.00% |           9     18.00%     42.00% |           4      8.00%     50.00% |           6     12.00%     62.00% |           8     16.00%     78.00% |          11     22.00%    100.00% (Unspecified)
system.caches.L2Cache_Controller.M_I.L1_GETX::total           50                       (Unspecified)
system.caches.L2Cache_Controller.M_I.Mem_Ack |     2213271     12.50%     12.50% |     2213313     12.50%     25.01% |     2211916     12.50%     37.51% |     2211289     12.49%     50.00% |     2212002     12.50%     62.50% |     2213176     12.50%     75.00% |     2211764     12.50%     87.50% |     2213089     12.50%    100.00% (Unspecified)
system.caches.L2Cache_Controller.M_I.Mem_Ack::total     17699820                       (Unspecified)
system.caches.L2Cache_Controller.M_I.MEM_Inv |          53     13.32%     13.32% |          49     12.31%     25.63% |          49     12.31%     37.94% |          52     13.07%     51.01% |          49     12.31%     63.32% |          51     12.81%     76.13% |          48     12.06%     88.19% |          47     11.81%    100.00% (Unspecified)
system.caches.L2Cache_Controller.M_I.MEM_Inv::total          398                       (Unspecified)
system.caches.L2Cache_Controller.MT_I.WB_Data |         257     15.38%     15.38% |         208     12.45%     27.83% |          67      4.01%     31.84% |         240     14.36%     46.20% |         165      9.87%     56.07% |         260     15.56%     71.63% |         174     10.41%     82.05% |         300     17.95%    100.00% (Unspecified)
system.caches.L2Cache_Controller.MT_I.WB_Data::total         1671                       (Unspecified)
system.caches.L2Cache_Controller.MT_I.Ack_all |         231     12.39%     12.39% |         233     12.50%     24.89% |         231     12.39%     37.29% |         229     12.29%     49.57% |         234     12.55%     62.12% |         232     12.45%     74.57% |         238     12.77%     87.34% |         236     12.66%    100.00% (Unspecified)
system.caches.L2Cache_Controller.MT_I.Ack_all::total         1864                       (Unspecified)
system.caches.L2Cache_Controller.MT_I.MEM_Inv |         246     12.45%     12.45% |         248     12.55%     25.00% |         248     12.55%     37.55% |         245     12.40%     49.95% |         247     12.50%     62.45% |         245     12.40%     74.85% |         248     12.55%     87.40% |         249     12.60%    100.00% (Unspecified)
system.caches.L2Cache_Controller.MT_I.MEM_Inv::total         1976                       (Unspecified)
system.caches.L2Cache_Controller.MCT_I.WB_Data |         933     12.10%     12.10% |         939     12.18%     24.29% |         399      5.18%     29.46% |         972     12.61%     42.07% |         583      7.56%     49.64% |        1644     21.33%     70.97% |         925     12.00%     82.97% |        1313     17.03%    100.00% (Unspecified)
system.caches.L2Cache_Controller.MCT_I.WB_Data::total         7708                       (Unspecified)
system.caches.L2Cache_Controller.MCT_I.Ack_all |         923     11.30%     11.30% |        1431     17.52%     28.81% |         915     11.20%     40.01% |         789      9.66%     49.67% |        1279     15.65%     65.32% |         999     12.23%     77.55% |        1034     12.66%     90.21% |         800      9.79%    100.00% (Unspecified)
system.caches.L2Cache_Controller.MCT_I.Ack_all::total         8170                       (Unspecified)
system.caches.L2Cache_Controller.I_I.Ack |        4298     14.05%     14.05% |        4162     13.60%     27.65% |        3869     12.65%     40.29% |        3190     10.43%     50.72% |        3936     12.86%     63.58% |        3965     12.96%     76.54% |        3443     11.25%     87.80% |        3734     12.20%    100.00% (Unspecified)
system.caches.L2Cache_Controller.I_I.Ack::total        30597                       (Unspecified)
system.caches.L2Cache_Controller.I_I.Ack_all |        5394     14.00%     14.00% |        5355     13.90%     27.90% |        4884     12.68%     40.58% |        4132     10.73%     51.31% |        4771     12.39%     63.70% |        4810     12.49%     76.18% |        4174     10.84%     87.02% |        5001     12.98%    100.00% (Unspecified)
system.caches.L2Cache_Controller.I_I.Ack_all::total        38521                       (Unspecified)
system.caches.L2Cache_Controller.S_I.Ack |           7     11.11%     11.11% |          11     17.46%     28.57% |           9     14.29%     42.86% |           4      6.35%     49.21% |          11     17.46%     66.67% |           9     14.29%     80.95% |           7     11.11%     92.06% |           5      7.94%    100.00% (Unspecified)
system.caches.L2Cache_Controller.S_I.Ack::total           63                       (Unspecified)
system.caches.L2Cache_Controller.S_I.Ack_all |           7     11.11%     11.11% |          11     17.46%     28.57% |           9     14.29%     42.86% |           4      6.35%     49.21% |          11     17.46%     66.67% |           9     14.29%     80.95% |           7     11.11%     92.06% |           5      7.94%    100.00% (Unspecified)
system.caches.L2Cache_Controller.S_I.Ack_all::total           63                       (Unspecified)
system.caches.L2Cache_Controller.ISS.L1_GETS |         372     19.20%     19.20% |         284     14.66%     33.87% |         362     18.69%     52.56% |         219     11.31%     63.86% |         185      9.55%     73.41% |         216     11.15%     84.56% |          63      3.25%     87.82% |         236     12.18%    100.00% (Unspecified)
system.caches.L2Cache_Controller.ISS.L1_GETS::total         1937                       (Unspecified)
system.caches.L2Cache_Controller.ISS.Mem_Data |     1517817     12.50%     12.50% |     1517898     12.50%     25.00% |     1517561     12.50%     37.50% |     1517181     12.50%     50.00% |     1517492     12.50%     62.50% |     1517482     12.50%     75.00% |     1517526     12.50%     87.50% |     1517930     12.50%    100.00% (Unspecified)
system.caches.L2Cache_Controller.ISS.Mem_Data::total     12140887                       (Unspecified)
system.caches.L2Cache_Controller.IS.L1_GET_INSTR |        1426     14.18%     14.18% |        1510     15.01%     29.19% |        1214     12.07%     41.26% |        1105     10.99%     52.25% |        1352     13.44%     65.70% |        1306     12.99%     78.68% |        1108     11.02%     89.70% |        1036     10.30%    100.00% (Unspecified)
system.caches.L2Cache_Controller.IS.L1_GET_INSTR::total        10057                       (Unspecified)
system.caches.L2Cache_Controller.IS.Mem_Data |        4831     13.58%     13.58% |        4984     14.01%     27.60% |        4431     12.46%     40.05% |        3862     10.86%     50.91% |        4397     12.36%     63.27% |        4632     13.02%     76.30% |        3923     11.03%     87.33% |        4508     12.67%    100.00% (Unspecified)
system.caches.L2Cache_Controller.IS.Mem_Data::total        35568                       (Unspecified)
system.caches.L2Cache_Controller.IM.L1_GETX |           0      0.00%      0.00% |           2    100.00%    100.00% |           0      0.00%    100.00% |           0      0.00%    100.00% |           0      0.00%    100.00% |           0      0.00%    100.00% |           0      0.00%    100.00% |           0      0.00%    100.00% (Unspecified)
system.caches.L2Cache_Controller.IM.L1_GETX::total            2                       (Unspecified)
system.caches.L2Cache_Controller.IM.Mem_Data |      707006     12.50%     12.50% |      706815     12.50%     25.00% |      706308     12.49%     37.49% |      706630     12.50%     49.99% |      706497     12.49%     62.49% |      707446     12.51%     75.00% |      706699     12.50%     87.50% |      707035     12.50%    100.00% (Unspecified)
system.caches.L2Cache_Controller.IM.Mem_Data::total      5654436                       (Unspecified)
system.caches.L2Cache_Controller.SS_MB.L1_GETS |           1      0.02%      0.02% |           0      0.00%      0.02% |           0      0.00%      0.02% |           0      0.00%      0.02% |           0      0.00%      0.02% |           0      0.00%      0.02% |        5239     99.98%    100.00% |           0      0.00%    100.00% (Unspecified)
system.caches.L2Cache_Controller.SS_MB.L1_GETS::total         5240                       (Unspecified)
system.caches.L2Cache_Controller.SS_MB.L1_UPGRADE |           2    100.00%    100.00% |           0      0.00%    100.00% |           0      0.00%    100.00% |           0      0.00%    100.00% |           0      0.00%    100.00% |           0      0.00%    100.00% |           0      0.00%    100.00% |           0      0.00%    100.00% (Unspecified)
system.caches.L2Cache_Controller.SS_MB.L1_UPGRADE::total            2                       (Unspecified)
system.caches.L2Cache_Controller.SS_MB.Exclusive_Unblock |        3414     24.49%     24.49% |        1618     11.61%     36.09% |          29      0.21%     36.30% |          24      0.17%     36.48% |          74      0.53%     37.01% |          27      0.19%     37.20% |        8701     62.41%     99.61% |          54      0.39%    100.00% (Unspecified)
system.caches.L2Cache_Controller.SS_MB.Exclusive_Unblock::total        13941                       (Unspecified)
system.caches.L2Cache_Controller.MT_MB.L1_GETS |           4     20.00%     20.00% |           3     15.00%     35.00% |           2     10.00%     45.00% |           5     25.00%     70.00% |           2     10.00%     80.00% |           2     10.00%     90.00% |           1      5.00%     95.00% |           1      5.00%    100.00% (Unspecified)
system.caches.L2Cache_Controller.MT_MB.L1_GETS::total           20                       (Unspecified)
system.caches.L2Cache_Controller.MT_MB.Exclusive_Unblock |     2768896     12.51%     12.51% |     2767902     12.50%     25.01% |     2764904     12.49%     37.50% |     2766712     12.50%     50.00% |     2766122     12.50%     62.49% |     2768240     12.50%     75.00% |     2766622     12.50%     87.50% |     2767765     12.50%    100.00% (Unspecified)
system.caches.L2Cache_Controller.MT_MB.Exclusive_Unblock::total     22137163                       (Unspecified)
system.caches.L2Cache_Controller.MT_IIB.WB_Data |        3415     24.59%     24.59% |        1537     11.07%     35.65% |          34      0.24%     35.90% |          25      0.18%     36.08% |          80      0.58%     36.65% |          34      0.24%     36.90% |        8706     62.68%     99.58% |          58      0.42%    100.00% (Unspecified)
system.caches.L2Cache_Controller.MT_IIB.WB_Data::total        13889                       (Unspecified)
system.caches.L2Cache_Controller.MT_IIB.WB_Data_clean |         616     18.13%     18.13% |         507     14.92%     33.06% |         502     14.78%     47.84% |         304      8.95%     56.79% |         418     12.30%     69.09% |         219      6.45%     75.54% |         290      8.54%     84.07% |         541     15.93%    100.00% (Unspecified)
system.caches.L2Cache_Controller.MT_IIB.WB_Data_clean::total         3397                       (Unspecified)
[...]
system.timingCpu0.exec_context.thread_0.statExecutedInstType::SimdSha1Hash2            0      0.00%     70.04% # Class of executed instruction. (Count)
system.timingCpu0.exec_context.thread_0.statExecutedInstType::SimdSha256Hash            0      0.00%     70.04% # Class of executed instruction. (Count)
system.timingCpu0.exec_context.thread_0.statExecutedInstType::SimdSha256Hash2            0      0.00%     70.04% # Class of executed instruction. (Count)
system.timingCpu0.exec_context.thread_0.statExecutedInstType::SimdShaSigma2            0      0.00%     70.04% # Class of executed instruction. (Count)
system.timingCpu0.exec_context.thread_0.statExecutedInstType::SimdShaSigma3            0      0.00%     70.04% # Class of executed instruction. (Count)
system.timingCpu0.exec_context.thread_0.statExecutedInstType::SimdPredAlu            0      0.00%     70.04% # Class of executed instruction. (Count)
system.timingCpu0.exec_context.thread_0.statExecutedInstType::MemRead      2246011      0.27%     70.32% # Class of executed instruction. (Count)
system.timingCpu0.exec_context.thread_0.statExecutedInstType::MemWrite      1136504      0.14%     70.45% # Class of executed instruction. (Count)
system.timingCpu0.exec_context.thread_0.statExecutedInstType::FloatMemRead    169268338     20.48%     90.93% # Class of executed instruction. (Count)
system.timingCpu0.exec_context.thread_0.statExecutedInstType::FloatMemWrite     74938592      9.07%    100.00% # Class of executed instruction. (Count)
system.timingCpu0.exec_context.thread_0.statExecutedInstType::IprAccess            0      0.00%    100.00% # Class of executed instruction. (Count)
system.timingCpu0.exec_context.thread_0.statExecutedInstType::InstPrefetch            0      0.00%    100.00% # Class of executed instruction. (Count)
system.timingCpu0.exec_context.thread_0.statExecutedInstType::total    826502197                       # Class of executed instruction. (Count)
system.timingCpu0.mmu.dtb.rdAccesses        171568323                       # TLB accesses on read requests (Count)
system.timingCpu0.mmu.dtb.wrAccesses         76083355                       # TLB accesses on write requests (Count)
system.timingCpu0.mmu.dtb.rdMisses              53985                       # TLB misses on read requests (Count)
system.timingCpu0.mmu.dtb.wrMisses               8306                       # TLB misses on write requests (Count)
system.timingCpu0.mmu.dtb.walker.power_state.pwrStateResidencyTicks::UNDEFINED 22779924172250                       # Cumulative time (in ticks) in various power states (Tick)
system.timingCpu0.mmu.itb.rdAccesses                0                       # TLB accesses on read requests (Count)
system.timingCpu0.mmu.itb.wrAccesses        789807790                       # TLB accesses on write requests (Count)
system.timingCpu0.mmu.itb.rdMisses                  0                       # TLB misses on read requests (Count)
system.timingCpu0.mmu.itb.wrMisses               2693                       # TLB misses on write requests (Count)
system.timingCpu0.mmu.itb.walker.power_state.pwrStateResidencyTicks::UNDEFINED 22779924172250                       # Cumulative time (in ticks) in various power states (Tick)
system.timingCpu0.power_state.numTransitions           30                       # Number of power state transitions (Count)
system.timingCpu0.power_state.ticksClkGated::samples           15                       # Distribution of time spent in the clock gated state (Tick)
system.timingCpu0.power_state.ticksClkGated::mean 916300633.333333                       # Distribution of time spent in the clock gated state (Tick)
system.timingCpu0.power_state.ticksClkGated::stdev 245439973.969249                       # Distribution of time spent in the clock gated state (Tick)
system.timingCpu0.power_state.ticksClkGated::1000-5e+10           15    100.00%    100.00% # Distribution of time spent in the clock gated state (Tick)
system.timingCpu0.power_state.ticksClkGated::min_value     61311250                       # Distribution of time spent in the clock gated state (Tick)
system.timingCpu0.power_state.ticksClkGated::max_value    997865000                       # Distribution of time spent in the clock gated state (Tick)
system.timingCpu0.power_state.ticksClkGated::total           15                       # Distribution of time spent in the clock gated state (Tick)
system.timingCpu0.power_state.pwrStateResidencyTicks::ON 1005921281750                       # Cumulative time (in ticks) in various power states (Tick)
system.timingCpu0.power_state.pwrStateResidencyTicks::CLK_GATED  13744509500                       # Cumulative time (in ticks) in various power states (Tick)
system.timingCpu0.power_state.pwrStateResidencyTicks::OFF 21760258381000                       # Cumulative time (in ticks) in various power states (Tick)
system.timingCpu0.thread_0.numInsts                 0                       # Number of Instructions committed (Count)
system.timingCpu0.thread_0.numOps                   0                       # Number of Ops committed (Count)
system.timingCpu0.thread_0.numMemRefs               0                       # Number of Memory References (Count)
system.timingCpu1.numCycles                7999999992                       # Number of cpu cycles simulated (Cycle)
system.timingCpu1.numWorkItemsStarted               0                       # Number of work items this cpu started (Count)
system.timingCpu1.numWorkItemsCompleted             0                       # Number of work items this cpu completed (Count)
system.timingCpu1.exec_context.thread_0.numInsts    510922217                       # Number of instructions committed (Count)
system.timingCpu1.exec_context.thread_0.numOps    821797682                       # Number of ops (including micro ops) committed (Count)
system.timingCpu1.exec_context.thread_0.numIntAluAccesses    308296021                       # Number of integer alu accesses (Count)
system.timingCpu1.exec_context.thread_0.numFpAluAccesses    757876357                       # Number of float alu accesses (Count)
system.timingCpu1.exec_context.thread_0.numVecAluAccesses            0                       # Number of vector alu accesses (Count)
system.timingCpu1.exec_context.thread_0.numCallsReturns       312604                       # Number of times a function call or return occured (Count)
system.timingCpu1.exec_context.thread_0.numCondCtrlInsts      6294814                       # Number of instructions that are conditional controls (Count)
system.timingCpu1.exec_context.thread_0.numIntInsts    308296021                       # Number of integer instructions (Count)
system.timingCpu1.exec_context.thread_0.numFpInsts    757876357                       # Number of float instructions (Count)
system.timingCpu1.exec_context.thread_0.numVecInsts            0                       # Number of vector instructions (Count)
system.timingCpu1.exec_context.thread_0.numIntRegReads    311317763                       # Number of times the integer registers were read (Count)
system.timingCpu1.exec_context.thread_0.numIntRegWrites     49984711                       # Number of times the integer registers were written (Count)
system.timingCpu1.exec_context.thread_0.numFpRegReads   1206066604                       # Number of times the floating registers were read (Count)
system.timingCpu1.exec_context.thread_0.numFpRegWrites    682576142                       # Number of times the floating registers were written (Count)
system.timingCpu1.exec_context.thread_0.numVecRegReads            0                       # Number of times the vector registers were read (Count)
system.timingCpu1.exec_context.thread_0.numVecRegWrites            0                       # Number of times the vector registers were written (Count)
system.timingCpu1.exec_context.thread_0.numVecPredRegReads            0                       # Number of times the predicate registers were read (Count)
system.timingCpu1.exec_context.thread_0.numVecPredRegWrites            0                       # Number of times the predicate registers were written (Count)
system.timingCpu1.exec_context.thread_0.numCCRegReads     33142384                       # Number of times the CC registers were read (Count)
system.timingCpu1.exec_context.thread_0.numCCRegWrites     45186532                       # Number of times the CC registers were written (Count)
system.timingCpu1.exec_context.thread_0.numMiscRegReads    260449906                       # Number of times the Misc registers were read (Count)
system.timingCpu1.exec_context.thread_0.numMiscRegWrites        68932                       # Number of times the Misc registers were written (Count)
system.timingCpu1.exec_context.thread_0.numMemRefs    246812534                       # Number of memory refs (Count)
system.timingCpu1.exec_context.thread_0.numLoadInsts    170799880                       # Number of load instructions (Count)
system.timingCpu1.exec_context.thread_0.numStoreInsts     76012654                       # Number of store instructions (Count)
system.timingCpu1.exec_context.thread_0.numIdleCycles            0                       # Number of idle cycles (Cycle)
system.timingCpu1.exec_context.thread_0.numBusyCycles   7999999992                       # Number of busy cycles (Cycle)
system.timingCpu1.exec_context.thread_0.notIdleFraction            1                       # Percentage of non-idle cycles (Ratio)
system.timingCpu1.exec_context.thread_0.idleFraction            0                       # Percentage of idle cycles (Ratio)
system.timingCpu1.exec_context.thread_0.numBranches      6785187                       # Number of branches fetched (Count)
system.timingCpu1.exec_context.thread_0.statExecutedInstType::No_OpClass        59208      0.01%      0.01% # Class of executed instruction. (Count)
system.timingCpu1.exec_context.thread_0.statExecutedInstType::IntAlu    240643337     29.28%     29.29% # Class of executed instruction. (Count)
system.timingCpu1.exec_context.thread_0.statExecutedInstType::IntMult        46817      0.01%     29.30% # Class of executed instruction. (Count)
system.timingCpu1.exec_context.thread_0.statExecutedInstType::IntDiv        86531      0.01%     29.31% # Class of executed instruction. (Count)
system.timingCpu1.exec_context.thread_0.statExecutedInstType::FloatAdd     76560174      9.32%     38.62% # Class of executed instruction. (Count)
system.timingCpu1.exec_context.thread_0.statExecutedInstType::FloatCmp            0      0.00%     38.62% # Class of executed instruction. (Count)
system.timingCpu1.exec_context.thread_0.statExecutedInstType::FloatCvt           64      0.00%     38.62% # Class of executed instruction. (Count)
system.timingCpu1.exec_context.thread_0.statExecutedInstType::FloatMult            0      0.00%     38.62% # Class of executed instruction. (Count)
system.timingCpu1.exec_context.thread_0.statExecutedInstType::FloatMultAcc            0      0.00%     38.62% # Class of executed instruction. (Count)
system.timingCpu1.exec_context.thread_0.statExecutedInstType::FloatDiv            0      0.00%     38.62% # Class of executed instruction. (Count)
system.timingCpu1.exec_context.thread_0.statExecutedInstType::FloatMisc            0      0.00%     38.62% # Class of executed instruction. (Count)
system.timingCpu1.exec_context.thread_0.statExecutedInstType::FloatSqrt            0      0.00%     38.62% # Class of executed instruction. (Count)
system.timingCpu1.exec_context.thread_0.statExecutedInstType::SimdAdd            0      0.00%     38.62% # Class of executed instruction. (Count)
system.timingCpu1.exec_context.thread_0.statExecutedInstType::SimdAddAcc            0      0.00%     38.62% # Class of executed instruction. (Count)
system.timingCpu1.exec_context.thread_0.statExecutedInstType::SimdAlu            0      0.00%     38.62% # Class of executed instruction. (Count)
system.timingCpu1.exec_context.thread_0.statExecutedInstType::SimdCmp            0      0.00%     38.62% # Class of executed instruction. (Count)
system.timingCpu1.exec_context.thread_0.statExecutedInstType::SimdCvt            0      0.00%     38.62% # Class of executed instruction. (Count)
system.timingCpu1.exec_context.thread_0.statExecutedInstType::SimdMisc            0      0.00%     38.62% # Class of executed instruction. (Count)
system.timingCpu1.exec_context.thread_0.statExecutedInstType::SimdMult            0      0.00%     38.62% # Class of executed instruction. (Count)
system.timingCpu1.exec_context.thread_0.statExecutedInstType::SimdMultAcc            0      0.00%     38.62% # Class of executed instruction. (Count)
system.timingCpu1.exec_context.thread_0.statExecutedInstType::SimdShift            0      0.00%     38.62% # Class of executed instruction. (Count)
system.timingCpu1.exec_context.thread_0.statExecutedInstType::SimdShiftAcc            0      0.00%     38.62% # Class of executed instruction. (Count)
system.timingCpu1.exec_context.thread_0.statExecutedInstType::SimdDiv            0      0.00%     38.62% # Class of executed instruction. (Count)
system.timingCpu1.exec_context.thread_0.statExecutedInstType::SimdSqrt            0      0.00%     38.62% # Class of executed instruction. (Count)
system.timingCpu1.exec_context.thread_0.statExecutedInstType::SimdFloatAdd    144430951     17.58%     56.20% # Class of executed instruction. (Count)
system.timingCpu1.exec_context.thread_0.statExecutedInstType::SimdFloatAlu            0      0.00%     56.20% # Class of executed instruction. (Count)
system.timingCpu1.exec_context.thread_0.statExecutedInstType::SimdFloatCmp            0      0.00%     56.20% # Class of executed instruction. (Count)
system.timingCpu1.exec_context.thread_0.statExecutedInstType::SimdFloatCvt            0      0.00%     56.20% # Class of executed instruction. (Count)
system.timingCpu1.exec_context.thread_0.statExecutedInstType::SimdFloatDiv      2003101      0.24%     56.44% # Class of executed instruction. (Count)
system.timingCpu1.exec_context.thread_0.statExecutedInstType::SimdFloatMisc            0      0.00%     56.44% # Class of executed instruction. (Count)
system.timingCpu1.exec_context.thread_0.statExecutedInstType::SimdFloatMult    111154965     13.53%     69.97% # Class of executed instruction. (Count)
system.timingCpu1.exec_context.thread_0.statExecutedInstType::SimdFloatMultAcc            0      0.00%     69.97% # Class of executed instruction. (Count)
system.timingCpu1.exec_context.thread_0.statExecutedInstType::SimdFloatSqrt            0      0.00%     69.97% # Class of executed instruction. (Count)
system.timingCpu1.exec_context.thread_0.statExecutedInstType::SimdReduceAdd            0      0.00%     69.97% # Class of executed instruction. (Count)
system.timingCpu1.exec_context.thread_0.statExecutedInstType::SimdReduceAlu            0      0.00%     69.97% # Class of executed instruction. (Count)
system.timingCpu1.exec_context.thread_0.statExecutedInstType::SimdReduceCmp            0      0.00%     69.97% # Class of executed instruction. (Count)
system.timingCpu1.exec_context.thread_0.statExecutedInstType::SimdFloatReduceAdd            0      0.00%     69.97% # Class of executed instruction. (Count)
system.timingCpu1.exec_context.thread_0.statExecutedInstType::SimdFloatReduceCmp            0      0.00%     69.97% # Class of executed instruction. (Count)
system.timingCpu1.exec_context.thread_0.statExecutedInstType::SimdAes            0      0.00%     69.97% # Class of executed instruction. (Count)
system.timingCpu1.exec_context.thread_0.statExecutedInstType::SimdAesMix            0      0.00%     69.97% # Class of executed instruction. (Count)
system.timingCpu1.exec_context.thread_0.statExecutedInstType::SimdSha1Hash            0      0.00%     69.97% # Class of executed instruction. (Count)
system.timingCpu1.exec_context.thread_0.statExecutedInstType::SimdSha1Hash2            0      0.00%     69.97% # Class of executed instruction. (Count)
system.timingCpu1.exec_context.thread_0.statExecutedInstType::SimdSha256Hash            0      0.00%     69.97% # Class of executed instruction. (Count)
system.timingCpu1.exec_context.thread_0.statExecutedInstType::SimdSha256Hash2            0      0.00%     69.97% # Class of executed instruction. (Count)
system.timingCpu1.exec_context.thread_0.statExecutedInstType::SimdShaSigma2            0      0.00%     69.97% # Class of executed instruction. (Count)
system.timingCpu1.exec_context.thread_0.statExecutedInstType::SimdShaSigma3            0      0.00%     69.97% # Class of executed instruction. (Count)
system.timingCpu1.exec_context.thread_0.statExecutedInstType::SimdPredAlu            0      0.00%     69.97% # Class of executed instruction. (Count)
system.timingCpu1.exec_context.thread_0.statExecutedInstType::MemRead      1372598      0.17%     70.13% # Class of executed instruction. (Count)
system.timingCpu1.exec_context.thread_0.statExecutedInstType::MemWrite       712503      0.09%     70.22% # Class of executed instruction. (Count)
system.timingCpu1.exec_context.thread_0.statExecutedInstType::FloatMemRead    169427282     20.62%     90.84% # Class of executed instruction. (Count)
system.timingCpu1.exec_context.thread_0.statExecutedInstType::FloatMemWrite     75300151      9.16%    100.00% # Class of executed instruction. (Count)
system.timingCpu1.exec_context.thread_0.statExecutedInstType::IprAccess            0      0.00%    100.00% # Class of executed instruction. (Count)
system.timingCpu1.exec_context.thread_0.statExecutedInstType::InstPrefetch            0      0.00%    100.00% # Class of executed instruction. (Count)
system.timingCpu1.exec_context.thread_0.statExecutedInstType::total    821797682                       # Class of executed instruction. (Count)
system.timingCpu1.mmu.dtb.rdAccesses        170850145                       # TLB accesses on read requests (Count)
system.timingCpu1.mmu.dtb.wrAccesses         76021096                       # TLB accesses on write requests (Count)
system.timingCpu1.mmu.dtb.rdMisses              50515                       # TLB misses on read requests (Count)
system.timingCpu1.mmu.dtb.wrMisses               8541                       # TLB misses on write requests (Count)
system.timingCpu1.mmu.dtb.walker.power_state.pwrStateResidencyTicks::UNDEFINED 22779924172250                       # Cumulative time (in ticks) in various power states (Tick)
system.timingCpu1.mmu.itb.rdAccesses                0                       # TLB accesses on read requests (Count)
system.timingCpu1.mmu.itb.wrAccesses        788061861                       # TLB accesses on write requests (Count)
system.timingCpu1.mmu.itb.rdMisses                  0                       # TLB misses on read requests (Count)
system.timingCpu1.mmu.itb.wrMisses               2721                       # TLB misses on write requests (Count)
system.timingCpu1.mmu.itb.walker.power_state.pwrStateResidencyTicks::UNDEFINED 22779924172250                       # Cumulative time (in ticks) in various power states (Tick)
system.timingCpu1.power_state.pwrStateResidencyTicks::OFF 22779924172250                       # Cumulative time (in ticks) in various power states (Tick)
system.timingCpu1.thread_0.numInsts                 0                       # Number of Instructions committed (Count)
system.timingCpu1.thread_0.numOps                   0                       # Number of Ops committed (Count)
system.timingCpu1.thread_0.numMemRefs               0                       # Number of Memory References (Count)
system.workload.inst.arm                            0                       # number of arm instructions executed (Count)
system.workload.inst.quiesce                        0                       # number of quiesce instructions executed (Count)

---------- End Simulation Statistics   ----------
