
---------- Begin Simulation Statistics ----------
simSeconds                                          5                       # Number of seconds simulated (Second)
simTicks                                 5000000000000                       # Number of ticks simulated (Tick)
finalTick                                23737467399750                       # Number of ticks from beginning of simulation (restored from checkpoints and never reset) (Tick)
simFreq                                  1000000000000                       # The number of ticks per simulated second ((Tick/Second))
hostSeconds                                  14443.91                       # Real time elapsed on the host (Second)
hostTickRate                                346166642                       # The number of ticks simulated per host second (ticks/s) ((Tick/Second))
hostMemory                                   16072148                       # Number of bytes of host memory used (Byte)
simInsts                                  25546473573                       # Number of instructions simulated (Count)
simOps                                    27097861428                       # Number of ops (including micro ops) simulated (Count)
hostInstRate                                  1768667                       # Simulator instruction rate (inst/s) ((Count/Second))
hostOpRate                                    1876075                       # Simulator op (including micro ops) rate (op/s) ((Count/Second))
system.atomicCpu0.numCycles                         0                       # Number of cpu cycles simulated (Cycle)
system.atomicCpu0.numWorkItemsStarted               0                       # Number of work items this cpu started (Count)
system.atomicCpu0.numWorkItemsCompleted             0                       # Number of work items this cpu completed (Count)
system.atomicCpu0.exec_context.thread_0.numInsts            0                       # Number of instructions committed (Count)
system.atomicCpu0.exec_context.thread_0.numOps            0                       # Number of ops (including micro ops) committed (Count)
system.atomicCpu0.exec_context.thread_0.numIntAluAccesses            0                       # Number of integer alu accesses (Count)
system.atomicCpu0.exec_context.thread_0.numFpAluAccesses            0                       # Number of float alu accesses (Count)
system.atomicCpu0.exec_context.thread_0.numVecAluAccesses            0                       # Number of vector alu accesses (Count)
system.atomicCpu0.exec_context.thread_0.numCallsReturns            0                       # Number of times a function call or return occured (Count)
system.atomicCpu0.exec_context.thread_0.numCondCtrlInsts            0                       # Number of instructions that are conditional controls (Count)
system.atomicCpu0.exec_context.thread_0.numIntInsts            0                       # Number of integer instructions (Count)
system.atomicCpu0.exec_context.thread_0.numFpInsts            0                       # Number of float instructions (Count)
system.atomicCpu0.exec_context.thread_0.numVecInsts            0                       # Number of vector instructions (Count)
system.atomicCpu0.exec_context.thread_0.numIntRegReads            0                       # Number of times the integer registers were read (Count)
system.atomicCpu0.exec_context.thread_0.numIntRegWrites            0                       # Number of times the integer registers were written (Count)
system.atomicCpu0.exec_context.thread_0.numFpRegReads            0                       # Number of times the floating registers were read (Count)
system.atomicCpu0.exec_context.thread_0.numFpRegWrites            0                       # Number of times the floating registers were written (Count)
system.atomicCpu0.exec_context.thread_0.numVecRegReads            0                       # Number of times the vector registers were read (Count)
system.atomicCpu0.exec_context.thread_0.numVecRegWrites            0                       # Number of times the vector registers were written (Count)
system.atomicCpu0.exec_context.thread_0.numVecPredRegReads            0                       # Number of times the predicate registers were read (Count)
system.atomicCpu0.exec_context.thread_0.numVecPredRegWrites            0                       # Number of times the predicate registers were written (Count)
system.atomicCpu0.exec_context.thread_0.numMiscRegReads            0                       # Number of times the Misc registers were read (Count)
system.atomicCpu0.exec_context.thread_0.numMiscRegWrites            0                       # Number of times the Misc registers were written (Count)
system.atomicCpu0.exec_context.thread_0.numMemRefs            0                       # Number of memory refs (Count)
system.atomicCpu0.exec_context.thread_0.numLoadInsts            0                       # Number of load instructions (Count)
system.atomicCpu0.exec_context.thread_0.numStoreInsts            0                       # Number of store instructions (Count)
system.atomicCpu0.exec_context.thread_0.numIdleCycles            0                       # Number of idle cycles (Cycle)
system.atomicCpu0.exec_context.thread_0.numBusyCycles            0                       # Number of busy cycles (Cycle)
system.atomicCpu0.exec_context.thread_0.notIdleFraction            0                       # Percentage of non-idle cycles (Ratio)
system.atomicCpu0.exec_context.thread_0.idleFraction            1                       # Percentage of idle cycles (Ratio)
system.atomicCpu0.exec_context.thread_0.statExecutedInstType::No_OpClass            0                       # Class of executed instruction. (Count)
system.atomicCpu0.exec_context.thread_0.statExecutedInstType::IntAlu            0                       # Class of executed instruction. (Count)
system.atomicCpu0.exec_context.thread_0.statExecutedInstType::IntMult            0                       # Class of executed instruction. (Count)
system.atomicCpu0.exec_context.thread_0.statExecutedInstType::IntDiv            0                       # Class of executed instruction. (Count)
system.atomicCpu0.exec_context.thread_0.statExecutedInstType::FloatAdd            0                       # Class of executed instruction. (Count)
system.atomicCpu0.exec_context.thread_0.statExecutedInstType::FloatCmp            0                       # Class of executed instruction. (Count)
system.atomicCpu0.exec_context.thread_0.statExecutedInstType::FloatCvt            0                       # Class of executed instruction. (Count)
system.atomicCpu0.exec_context.thread_0.statExecutedInstType::FloatMult            0                       # Class of executed instruction. (Count)
system.atomicCpu0.exec_context.thread_0.statExecutedInstType::FloatMultAcc            0                       # Class of executed instruction. (Count)
system.atomicCpu0.exec_context.thread_0.statExecutedInstType::FloatDiv            0                       # Class of executed instruction. (Count)
system.atomicCpu0.exec_context.thread_0.statExecutedInstType::FloatMisc            0                       # Class of executed instruction. (Count)
system.atomicCpu0.exec_context.thread_0.statExecutedInstType::FloatSqrt            0                       # Class of executed instruction. (Count)
system.atomicCpu0.exec_context.thread_0.statExecutedInstType::SimdAdd            0                       # Class of executed instruction. (Count)
system.atomicCpu0.exec_context.thread_0.statExecutedInstType::SimdAddAcc            0                       # Class of executed instruction. (Count)
system.atomicCpu0.exec_context.thread_0.statExecutedInstType::SimdAlu            0                       # Class of executed instruction. (Count)
system.atomicCpu0.exec_context.thread_0.statExecutedInstType::SimdCmp            0                       # Class of executed instruction. (Count)
system.atomicCpu0.exec_context.thread_0.statExecutedInstType::SimdCvt            0                       # Class of executed instruction. (Count)
system.atomicCpu0.exec_context.thread_0.statExecutedInstType::SimdMisc            0                       # Class of executed instruction. (Count)
system.atomicCpu0.exec_context.thread_0.statExecutedInstType::SimdMult            0                       # Class of executed instruction. (Count)
system.atomicCpu0.exec_context.thread_0.statExecutedInstType::SimdMultAcc            0                       # Class of executed instruction. (Count)
system.atomicCpu0.exec_context.thread_0.statExecutedInstType::SimdShift            0                       # Class of executed instruction. (Count)
system.atomicCpu0.exec_context.thread_0.statExecutedInstType::SimdShiftAcc            0                       # Class of executed instruction. (Count)
system.atomicCpu0.exec_context.thread_0.statExecutedInstType::SimdDiv            0                       # Class of executed instruction. (Count)
system.atomicCpu0.exec_context.thread_0.statExecutedInstType::SimdSqrt            0                       # Class of executed instruction. (Count)
system.atomicCpu0.exec_context.thread_0.statExecutedInstType::SimdFloatAdd            0                       # Class of executed instruction. (Count)
system.atomicCpu0.exec_context.thread_0.statExecutedInstType::SimdFloatAlu            0                       # Class of executed instruction. (Count)
system.atomicCpu0.exec_context.thread_0.statExecutedInstType::SimdFloatCmp            0                       # Class of executed instruction. (Count)
system.atomicCpu0.exec_context.thread_0.statExecutedInstType::SimdFloatCvt            0                       # Class of executed instruction. (Count)
system.atomicCpu0.exec_context.thread_0.statExecutedInstType::SimdFloatDiv            0                       # Class of executed instruction. (Count)
system.atomicCpu0.exec_context.thread_0.statExecutedInstType::SimdFloatMisc            0                       # Class of executed instruction. (Count)
system.atomicCpu0.exec_context.thread_0.statExecutedInstType::SimdFloatMult            0                       # Class of executed instruction. (Count)
system.atomicCpu0.exec_context.thread_0.statExecutedInstType::SimdFloatMultAcc            0                       # Class of executed instruction. (Count)
system.atomicCpu0.exec_context.thread_0.statExecutedInstType::SimdFloatSqrt            0                       # Class of executed instruction. (Count)
system.atomicCpu0.exec_context.thread_0.statExecutedInstType::SimdReduceAdd            0                       # Class of executed instruction. (Count)
system.atomicCpu0.exec_context.thread_0.statExecutedInstType::SimdReduceAlu            0                       # Class of executed instruction. (Count)
system.atomicCpu0.exec_context.thread_0.statExecutedInstType::SimdReduceCmp            0                       # Class of executed instruction. (Count)
system.atomicCpu0.exec_context.thread_0.statExecutedInstType::SimdFloatReduceAdd            0                       # Class of executed instruction. (Count)
system.atomicCpu0.exec_context.thread_0.statExecutedInstType::SimdFloatReduceCmp            0                       # Class of executed instruction. (Count)
system.atomicCpu0.exec_context.thread_0.statExecutedInstType::SimdAes            0                       # Class of executed instruction. (Count)
system.atomicCpu0.exec_context.thread_0.statExecutedInstType::SimdAesMix            0                       # Class of executed instruction. (Count)
system.atomicCpu0.exec_context.thread_0.statExecutedInstType::SimdSha1Hash            0                       # Class of executed instruction. (Count)
system.atomicCpu0.exec_context.thread_0.statExecutedInstType::SimdSha1Hash2            0                       # Class of executed instruction. (Count)
system.atomicCpu0.exec_context.thread_0.statExecutedInstType::SimdSha256Hash            0                       # Class of executed instruction. (Count)
system.atomicCpu0.exec_context.thread_0.statExecutedInstType::SimdSha256Hash2            0                       # Class of executed instruction. (Count)
system.atomicCpu0.exec_context.thread_0.statExecutedInstType::SimdShaSigma2            0                       # Class of executed instruction. (Count)
system.atomicCpu0.exec_context.thread_0.statExecutedInstType::SimdShaSigma3            0                       # Class of executed instruction. (Count)
system.atomicCpu0.exec_context.thread_0.statExecutedInstType::SimdPredAlu            0                       # Class of executed instruction. (Count)
system.atomicCpu0.exec_context.thread_0.statExecutedInstType::MemRead            0                       # Class of executed instruction. (Count)
system.atomicCpu0.exec_context.thread_0.statExecutedInstType::MemWrite            0                       # Class of executed instruction. (Count)
system.atomicCpu0.exec_context.thread_0.statExecutedInstType::FloatMemRead            0                       # Class of executed instruction. (Count)
system.atomicCpu0.exec_context.thread_0.statExecutedInstType::FloatMemWrite            0                       # Class of executed instruction. (Count)
system.atomicCpu0.exec_context.thread_0.statExecutedInstType::IprAccess            0                       # Class of executed instruction. (Count)
system.atomicCpu0.exec_context.thread_0.statExecutedInstType::InstPrefetch            0                       # Class of executed instruction. (Count)
system.atomicCpu0.exec_context.thread_0.statExecutedInstType::total            0                       # Class of executed instruction. (Count)
system.atomicCpu0.mmu.dtb.rdAccesses                0                       # TLB accesses on read requests (Count)
system.atomicCpu0.mmu.dtb.wrAccesses                0                       # TLB accesses on write requests (Count)
system.atomicCpu0.mmu.dtb.rdMisses                  0                       # TLB misses on read requests (Count)
system.atomicCpu0.mmu.dtb.wrMisses                  0                       # TLB misses on write requests (Count)
system.atomicCpu0.mmu.dtb.walker.power_state.pwrStateResidencyTicks::UNDEFINED 23737467399750                       # Cumulative time (in ticks) in various power states (Tick)
system.atomicCpu0.mmu.itb.rdAccesses                0                       # TLB accesses on read requests (Count)
system.atomicCpu0.mmu.itb.wrAccesses                0                       # TLB accesses on write requests (Count)
system.atomicCpu0.mmu.itb.rdMisses                  0                       # TLB misses on read requests (Count)
system.atomicCpu0.mmu.itb.wrMisses                  0                       # TLB misses on write requests (Count)
system.atomicCpu0.mmu.itb.walker.power_state.pwrStateResidencyTicks::UNDEFINED 23737467399750                       # Cumulative time (in ticks) in various power states (Tick)
system.atomicCpu0.power_state.pwrStateResidencyTicks::OFF 23737467399750                       # Cumulative time (in ticks) in various power states (Tick)
system.atomicCpu0.thread_0.numInsts                 0                       # Number of Instructions committed (Count)
system.atomicCpu0.thread_0.numOps                   0                       # Number of Ops committed (Count)
system.atomicCpu0.thread_0.numMemRefs               0                       # Number of Memory References (Count)
system.atomicCpu1.numCycles                         0                       # Number of cpu cycles simulated (Cycle)
system.atomicCpu1.numWorkItemsStarted               0                       # Number of work items this cpu started (Count)
system.atomicCpu1.numWorkItemsCompleted             0                       # Number of work items this cpu completed (Count)
system.atomicCpu1.exec_context.thread_0.numInsts            0                       # Number of instructions committed (Count)
system.atomicCpu1.exec_context.thread_0.numOps            0                       # Number of ops (including micro ops) committed (Count)
system.atomicCpu1.exec_context.thread_0.numIntAluAccesses            0                       # Number of integer alu accesses (Count)
system.atomicCpu1.exec_context.thread_0.numFpAluAccesses            0                       # Number of float alu accesses (Count)
system.atomicCpu1.exec_context.thread_0.numVecAluAccesses            0                       # Number of vector alu accesses (Count)
system.atomicCpu1.exec_context.thread_0.numCallsReturns            0                       # Number of times a function call or return occured (Count)
system.atomicCpu1.exec_context.thread_0.numCondCtrlInsts            0                       # Number of instructions that are conditional controls (Count)
system.atomicCpu1.exec_context.thread_0.numIntInsts            0                       # Number of integer instructions (Count)
system.atomicCpu1.exec_context.thread_0.numFpInsts            0                       # Number of float instructions (Count)
system.atomicCpu1.exec_context.thread_0.numVecInsts            0                       # Number of vector instructions (Count)
system.atomicCpu1.exec_context.thread_0.numIntRegReads            0                       # Number of times the integer registers were read (Count)
system.atomicCpu1.exec_context.thread_0.numIntRegWrites            0                       # Number of times the integer registers were written (Count)
system.atomicCpu1.exec_context.thread_0.numFpRegReads            0                       # Number of times the floating registers were read (Count)
system.atomicCpu1.exec_context.thread_0.numFpRegWrites            0                       # Number of times the floating registers were written (Count)
system.atomicCpu1.exec_context.thread_0.numVecRegReads            0                       # Number of times the vector registers were read (Count)
system.atomicCpu1.exec_context.thread_0.numVecRegWrites            0                       # Number of times the vector registers were written (Count)
system.atomicCpu1.exec_context.thread_0.numVecPredRegReads            0                       # Number of times the predicate registers were read (Count)
system.atomicCpu1.exec_context.thread_0.numVecPredRegWrites            0                       # Number of times the predicate registers were written (Count)
system.atomicCpu1.exec_context.thread_0.numMiscRegReads            0                       # Number of times the Misc registers were read (Count)
system.atomicCpu1.exec_context.thread_0.numMiscRegWrites            0                       # Number of times the Misc registers were written (Count)
system.atomicCpu1.exec_context.thread_0.numMemRefs            0                       # Number of memory refs (Count)
system.atomicCpu1.exec_context.thread_0.numLoadInsts            0                       # Number of load instructions (Count)
system.atomicCpu1.exec_context.thread_0.numStoreInsts            0                       # Number of store instructions (Count)
system.atomicCpu1.exec_context.thread_0.numIdleCycles            0                       # Number of idle cycles (Cycle)
system.atomicCpu1.exec_context.thread_0.numBusyCycles            0                       # Number of busy cycles (Cycle)
system.atomicCpu1.exec_context.thread_0.notIdleFraction            0                       # Percentage of non-idle cycles (Ratio)
system.atomicCpu1.exec_context.thread_0.idleFraction            1                       # Percentage of idle cycles (Ratio)
system.atomicCpu1.exec_context.thread_0.statExecutedInstType::No_OpClass            0                       # Class of executed instruction. (Count)
system.atomicCpu1.exec_context.thread_0.statExecutedInstType::IntAlu            0                       # Class of executed instruction. (Count)
system.atomicCpu1.exec_context.thread_0.statExecutedInstType::IntMult            0                       # Class of executed instruction. (Count)
system.atomicCpu1.exec_context.thread_0.statExecutedInstType::IntDiv            0                       # Class of executed instruction. (Count)
system.atomicCpu1.exec_context.thread_0.statExecutedInstType::FloatAdd            0                       # Class of executed instruction. (Count)
system.atomicCpu1.exec_context.thread_0.statExecutedInstType::FloatCmp            0                       # Class of executed instruction. (Count)
system.atomicCpu1.exec_context.thread_0.statExecutedInstType::FloatCvt            0                       # Class of executed instruction. (Count)
system.atomicCpu1.exec_context.thread_0.statExecutedInstType::FloatMult            0                       # Class of executed instruction. (Count)
system.atomicCpu1.exec_context.thread_0.statExecutedInstType::FloatMultAcc            0                       # Class of executed instruction. (Count)
system.atomicCpu1.exec_context.thread_0.statExecutedInstType::FloatDiv            0                       # Class of executed instruction. (Count)
system.atomicCpu1.exec_context.thread_0.statExecutedInstType::FloatMisc            0                       # Class of executed instruction. (Count)
system.atomicCpu1.exec_context.thread_0.statExecutedInstType::FloatSqrt            0                       # Class of executed instruction. (Count)
system.atomicCpu1.exec_context.thread_0.statExecutedInstType::SimdAdd            0                       # Class of executed instruction. (Count)
system.atomicCpu1.exec_context.thread_0.statExecutedInstType::SimdAddAcc            0                       # Class of executed instruction. (Count)
system.atomicCpu1.exec_context.thread_0.statExecutedInstType::SimdAlu            0                       # Class of executed instruction. (Count)
system.atomicCpu1.exec_context.thread_0.statExecutedInstType::SimdCmp            0                       # Class of executed instruction. (Count)
system.atomicCpu1.exec_context.thread_0.statExecutedInstType::SimdCvt            0                       # Class of executed instruction. (Count)
system.atomicCpu1.exec_context.thread_0.statExecutedInstType::SimdMisc            0                       # Class of executed instruction. (Count)
system.atomicCpu1.exec_context.thread_0.statExecutedInstType::SimdMult            0                       # Class of executed instruction. (Count)
system.atomicCpu1.exec_context.thread_0.statExecutedInstType::SimdMultAcc            0                       # Class of executed instruction. (Count)
system.atomicCpu1.exec_context.thread_0.statExecutedInstType::SimdShift            0                       # Class of executed instruction. (Count)
system.atomicCpu1.exec_context.thread_0.statExecutedInstType::SimdShiftAcc            0                       # Class of executed instruction. (Count)
system.atomicCpu1.exec_context.thread_0.statExecutedInstType::SimdDiv            0                       # Class of executed instruction. (Count)
system.atomicCpu1.exec_context.thread_0.statExecutedInstType::SimdSqrt            0                       # Class of executed instruction. (Count)
system.atomicCpu1.exec_context.thread_0.statExecutedInstType::SimdFloatAdd            0                       # Class of executed instruction. (Count)
system.atomicCpu1.exec_context.thread_0.statExecutedInstType::SimdFloatAlu            0                       # Class of executed instruction. (Count)
system.atomicCpu1.exec_context.thread_0.statExecutedInstType::SimdFloatCmp            0                       # Class of executed instruction. (Count)
system.atomicCpu1.exec_context.thread_0.statExecutedInstType::SimdFloatCvt            0                       # Class of executed instruction. (Count)
system.atomicCpu1.exec_context.thread_0.statExecutedInstType::SimdFloatDiv            0                       # Class of executed instruction. (Count)
system.atomicCpu1.exec_context.thread_0.statExecutedInstType::SimdFloatMisc            0                       # Class of executed instruction. (Count)
system.atomicCpu1.exec_context.thread_0.statExecutedInstType::SimdFloatMult            0                       # Class of executed instruction. (Count)
system.atomicCpu1.exec_context.thread_0.statExecutedInstType::SimdFloatMultAcc            0                       # Class of executed instruction. (Count)
system.atomicCpu1.exec_context.thread_0.statExecutedInstType::SimdFloatSqrt            0                       # Class of executed instruction. (Count)
system.atomicCpu1.exec_context.thread_0.statExecutedInstType::SimdReduceAdd            0                       # Class of executed instruction. (Count)
system.atomicCpu1.exec_context.thread_0.statExecutedInstType::SimdReduceAlu            0                       # Class of executed instruction. (Count)
system.atomicCpu1.exec_context.thread_0.statExecutedInstType::SimdReduceCmp            0                       # Class of executed instruction. (Count)
system.atomicCpu1.exec_context.thread_0.statExecutedInstType::SimdFloatReduceAdd            0                       # Class of executed instruction. (Count)
system.atomicCpu1.exec_context.thread_0.statExecutedInstType::SimdFloatReduceCmp            0                       # Class of executed instruction. (Count)
system.atomicCpu1.exec_context.thread_0.statExecutedInstType::SimdAes            0                       # Class of executed instruction. (Count)
system.atomicCpu1.exec_context.thread_0.statExecutedInstType::SimdAesMix            0                       # Class of executed instruction. (Count)
system.atomicCpu1.exec_context.thread_0.statExecutedInstType::SimdSha1Hash            0                       # Class of executed instruction. (Count)
system.atomicCpu1.exec_context.thread_0.statExecutedInstType::SimdSha1Hash2            0                       # Class of executed instruction. (Count)
system.atomicCpu1.exec_context.thread_0.statExecutedInstType::SimdSha256Hash            0                       # Class of executed instruction. (Count)
system.atomicCpu1.exec_context.thread_0.statExecutedInstType::SimdSha256Hash2            0                       # Class of executed instruction. (Count)
system.atomicCpu1.exec_context.thread_0.statExecutedInstType::SimdShaSigma2            0                       # Class of executed instruction. (Count)
system.atomicCpu1.exec_context.thread_0.statExecutedInstType::SimdShaSigma3            0                       # Class of executed instruction. (Count)
system.atomicCpu1.exec_context.thread_0.statExecutedInstType::SimdPredAlu            0                       # Class of executed instruction. (Count)
system.atomicCpu1.exec_context.thread_0.statExecutedInstType::MemRead            0                       # Class of executed instruction. (Count)
system.atomicCpu1.exec_context.thread_0.statExecutedInstType::MemWrite            0                       # Class of executed instruction. (Count)
system.atomicCpu1.exec_context.thread_0.statExecutedInstType::FloatMemRead            0                       # Class of executed instruction. (Count)
system.atomicCpu1.exec_context.thread_0.statExecutedInstType::FloatMemWrite            0                       # Class of executed instruction. (Count)
system.atomicCpu1.exec_context.thread_0.statExecutedInstType::IprAccess            0                       # Class of executed instruction. (Count)
system.atomicCpu1.exec_context.thread_0.statExecutedInstType::InstPrefetch            0                       # Class of executed instruction. (Count)
system.atomicCpu1.exec_context.thread_0.statExecutedInstType::total            0                       # Class of executed instruction. (Count)
system.atomicCpu1.mmu.dtb.rdAccesses                0                       # TLB accesses on read requests (Count)
system.atomicCpu1.mmu.dtb.wrAccesses                0                       # TLB accesses on write requests (Count)
system.atomicCpu1.mmu.dtb.rdMisses                  0                       # TLB misses on read requests (Count)
system.atomicCpu1.mmu.dtb.wrMisses                  0                       # TLB misses on write requests (Count)
system.atomicCpu1.mmu.dtb.walker.power_state.pwrStateResidencyTicks::UNDEFINED 23737467399750                       # Cumulative time (in ticks) in various power states (Tick)
system.atomicCpu1.mmu.itb.rdAccesses                0                       # TLB accesses on read requests (Count)
system.atomicCpu1.mmu.itb.wrAccesses                0                       # TLB accesses on write requests (Count)
system.atomicCpu1.mmu.itb.rdMisses                  0                       # TLB misses on read requests (Count)
system.atomicCpu1.mmu.itb.wrMisses                  0                       # TLB misses on write requests (Count)
system.atomicCpu1.mmu.itb.walker.power_state.pwrStateResidencyTicks::UNDEFINED 23737467399750                       # Cumulative time (in ticks) in various power states (Tick)
system.atomicCpu1.power_state.pwrStateResidencyTicks::OFF 23737467399750                       # Cumulative time (in ticks) in various power states (Tick)
system.atomicCpu1.thread_0.numInsts                 0                       # Number of Instructions committed (Count)
system.atomicCpu1.thread_0.numOps                   0                       # Number of Ops committed (Count)
system.atomicCpu1.thread_0.numMemRefs               0                       # Number of Memory References (Count)
system.caches.delayHistogram::bucket_size          256                       # delay histogram for all message (Unspecified)
system.caches.delayHistogram::max_bucket         2559                       # delay histogram for all message (Unspecified)
system.caches.delayHistogram::samples       404560684                       # delay histogram for all message (Unspecified)
system.caches.delayHistogram::mean           0.391777                       # delay histogram for all message (Unspecified)
system.caches.delayHistogram::stdev          1.734392                       # delay histogram for all message (Unspecified)
system.caches.delayHistogram             |   404560679    100.00%    100.00% |           1      0.00%    100.00% |           3      0.00%    100.00% |           0      0.00%    100.00% |           0      0.00%    100.00% |           0      0.00%    100.00% |           0      0.00%    100.00% |           1      0.00%    100.00% |           0      0.00%    100.00% |           0      0.00%    100.00% # delay histogram for all message (Unspecified)
system.caches.delayHistogram::total         404560684                       # delay histogram for all message (Unspecified)
system.caches.m_outstandReqHistSeqr::bucket_size            1                       (Unspecified)
system.caches.m_outstandReqHistSeqr::max_bucket            9                       (Unspecified)
system.caches.m_outstandReqHistSeqr::samples   5349239498                       (Unspecified)
system.caches.m_outstandReqHistSeqr::mean            1                       (Unspecified)
system.caches.m_outstandReqHistSeqr::gmean            1                       (Unspecified)
system.caches.m_outstandReqHistSeqr      |           0      0.00%      0.00% |  5349239498    100.00%    100.00% |           0      0.00%    100.00% |           0      0.00%    100.00% |           0      0.00%    100.00% |           0      0.00%    100.00% |           0      0.00%    100.00% |           0      0.00%    100.00% |           0      0.00%    100.00% |           0      0.00%    100.00% (Unspecified)
system.caches.m_outstandReqHistSeqr::total   5349239498                       (Unspecified)
system.caches.m_latencyHistSeqr::bucket_size          512                       (Unspecified)
system.caches.m_latencyHistSeqr::max_bucket         5119                       (Unspecified)
system.caches.m_latencyHistSeqr::samples   5349239496                       (Unspecified)
system.caches.m_latencyHistSeqr::mean        6.464006                       (Unspecified)
system.caches.m_latencyHistSeqr::gmean       1.066504                       (Unspecified)
system.caches.m_latencyHistSeqr::stdev      61.661688                       (Unspecified)
system.caches.m_latencyHistSeqr          |  5322171556     99.49%     99.49% |    25600171      0.48%     99.97% |      417710      0.01%     99.98% |      807053      0.02%    100.00% |      239830      0.00%    100.00% |        3168      0.00%    100.00% |           7      0.00%    100.00% |           1      0.00%    100.00% |           0      0.00%    100.00% |           0      0.00%    100.00% (Unspecified)
system.caches.m_latencyHistSeqr::total     5349239496                       (Unspecified)
system.caches.m_hitLatencyHistSeqr::bucket_size            1                       (Unspecified)
system.caches.m_hitLatencyHistSeqr::max_bucket            9                       (Unspecified)
system.caches.m_hitLatencyHistSeqr::samples   5288042449                       (Unspecified)
system.caches.m_hitLatencyHistSeqr::mean            1                       (Unspecified)
system.caches.m_hitLatencyHistSeqr::gmean            1                       (Unspecified)
system.caches.m_hitLatencyHistSeqr       |           0      0.00%      0.00% |  5288042449    100.00%    100.00% |           0      0.00%    100.00% |           0      0.00%    100.00% |           0      0.00%    100.00% |           0      0.00%    100.00% |           0      0.00%    100.00% |           0      0.00%    100.00% |           0      0.00%    100.00% |           0      0.00%    100.00% (Unspecified)
system.caches.m_hitLatencyHistSeqr::total   5288042449                       (Unspecified)
system.caches.m_missLatencyHistSeqr::bucket_size          512                       (Unspecified)
system.caches.m_missLatencyHistSeqr::max_bucket         5119                       (Unspecified)
system.caches.m_missLatencyHistSeqr::samples     61197047                       (Unspecified)
system.caches.m_missLatencyHistSeqr::mean   478.609291                       (Unspecified)
system.caches.m_missLatencyHistSeqr::gmean   278.109791                       (Unspecified)
system.caches.m_missLatencyHistSeqr::stdev   326.873844                       (Unspecified)
system.caches.m_missLatencyHistSeqr      |    34129107     55.77%     55.77% |    25600171     41.83%     97.60% |      417710      0.68%     98.28% |      807053      1.32%     99.60% |      239830      0.39%     99.99% |        3168      0.01%    100.00% |           7      0.00%    100.00% |           1      0.00%    100.00% |           0      0.00%    100.00% |           0      0.00%    100.00% (Unspecified)
system.caches.m_missLatencyHistSeqr::total     61197047                       (Unspecified)
system.caches.delayVCHist.vnet_0::bucket_size          256                       # delay histogram for vnet_0 (Unspecified)
system.caches.delayVCHist.vnet_0::max_bucket         2559                       # delay histogram for vnet_0 (Unspecified)
system.caches.delayVCHist.vnet_0::samples    182417682                       # delay histogram for vnet_0 (Unspecified)
system.caches.delayVCHist.vnet_0::mean       0.868131                       # delay histogram for vnet_0 (Unspecified)
system.caches.delayVCHist.vnet_0::stdev      2.500834                       # delay histogram for vnet_0 (Unspecified)
system.caches.delayVCHist.vnet_0         |   182417677    100.00%    100.00% |           1      0.00%    100.00% |           3      0.00%    100.00% |           0      0.00%    100.00% |           0      0.00%    100.00% |           0      0.00%    100.00% |           0      0.00%    100.00% |           1      0.00%    100.00% |           0      0.00%    100.00% |           0      0.00%    100.00% # delay histogram for vnet_0 (Unspecified)
system.caches.delayVCHist.vnet_0::total     182417682                       # delay histogram for vnet_0 (Unspecified)
system.caches.delayVCHist.vnet_1::bucket_size            2                       # delay histogram for vnet_1 (Unspecified)
system.caches.delayVCHist.vnet_1::max_bucket           19                       # delay histogram for vnet_1 (Unspecified)
system.caches.delayVCHist.vnet_1::samples    221862948                       # delay histogram for vnet_1 (Unspecified)
system.caches.delayVCHist.vnet_1::mean       0.000608                       # delay histogram for vnet_1 (Unspecified)
system.caches.delayVCHist.vnet_1::stdev      0.056588                       # delay histogram for vnet_1 (Unspecified)
system.caches.delayVCHist.vnet_1         |   221832312     99.99%     99.99% |        8725      0.00%     99.99% |       10442      0.00%     99.99% |        8061      0.00%    100.00% |        3404      0.00%    100.00% |           3      0.00%    100.00% |           0      0.00%    100.00% |           1      0.00%    100.00% |           0      0.00%    100.00% |           0      0.00%    100.00% # delay histogram for vnet_1 (Unspecified)
system.caches.delayVCHist.vnet_1::total     221862948                       # delay histogram for vnet_1 (Unspecified)
system.caches.delayVCHist.vnet_2::bucket_size            1                       # delay histogram for vnet_2 (Unspecified)
system.caches.delayVCHist.vnet_2::max_bucket            9                       # delay histogram for vnet_2 (Unspecified)
system.caches.delayVCHist.vnet_2::samples       280054                       # delay histogram for vnet_2 (Unspecified)
system.caches.delayVCHist.vnet_2::mean       0.000121                       # delay histogram for vnet_2 (Unspecified)
system.caches.delayVCHist.vnet_2::stdev      0.015582                       # delay histogram for vnet_2 (Unspecified)
system.caches.delayVCHist.vnet_2         |      280037     99.99%     99.99% |           0      0.00%     99.99% |          17      0.01%    100.00% |           0      0.00%    100.00% |           0      0.00%    100.00% |           0      0.00%    100.00% |           0      0.00%    100.00% |           0      0.00%    100.00% |           0      0.00%    100.00% |           0      0.00%    100.00% # delay histogram for vnet_2 (Unspecified)
system.caches.delayVCHist.vnet_2::total        280054                       # delay histogram for vnet_2 (Unspecified)
system.caches.L1Cache_Controller.Load    |   477312307     50.03%     50.03% |   476728876     49.97%    100.00% (Unspecified)
system.caches.L1Cache_Controller.Load::total    954041183                       (Unspecified)
system.caches.L1Cache_Controller.Ifetch  |  2074190584     49.99%     49.99% |  2074724761     50.01%    100.00% (Unspecified)
system.caches.L1Cache_Controller.Ifetch::total   4148915345                       (Unspecified)
system.caches.L1Cache_Controller.Store   |   123466075     50.13%     50.13% |   122816895     49.87%    100.00% (Unspecified)
system.caches.L1Cache_Controller.Store::total    246282970                       (Unspecified)
system.caches.L1Cache_Controller.Inv     |      112312     46.69%     46.69% |      128234     53.31%    100.00% (Unspecified)
system.caches.L1Cache_Controller.Inv::total       240546                       (Unspecified)
system.caches.L1Cache_Controller.L1_Replacement |    30452962     49.98%     49.98% |    30476852     50.02%    100.00% (Unspecified)
system.caches.L1Cache_Controller.L1_Replacement::total     60929814                       (Unspecified)
system.caches.L1Cache_Controller.Fwd_GETX |          81      7.60%      7.60% |         985     92.40%    100.00% (Unspecified)
system.caches.L1Cache_Controller.Fwd_GETX::total         1066                       (Unspecified)
system.caches.L1Cache_Controller.Fwd_GETS |       35189     91.54%     91.54% |        3253      8.46%    100.00% (Unspecified)
system.caches.L1Cache_Controller.Fwd_GETS::total        38442                       (Unspecified)
system.caches.L1Cache_Controller.Data    |        3349     99.79%     99.79% |           7      0.21%    100.00% (Unspecified)
system.caches.L1Cache_Controller.Data::total         3356                       (Unspecified)
system.caches.L1Cache_Controller.Data_Exclusive |    27160252     49.94%     49.94% |    27224644     50.06%    100.00% (Unspecified)
system.caches.L1Cache_Controller.Data_Exclusive::total     54384896                       (Unspecified)
system.caches.L1Cache_Controller.DataS_fromL1 |        3253      8.46%      8.46% |       35189     91.54%    100.00% (Unspecified)
system.caches.L1Cache_Controller.DataS_fromL1::total        38442                       (Unspecified)
system.caches.L1Cache_Controller.Data_all_Acks |     3396956     50.41%     50.41% |     3342278     49.59%    100.00% (Unspecified)
system.caches.L1Cache_Controller.Data_all_Acks::total      6739234                       (Unspecified)
system.caches.L1Cache_Controller.Ack     |       30758     98.84%     98.84% |         361      1.16%    100.00% (Unspecified)
system.caches.L1Cache_Controller.Ack::total        31119                       (Unspecified)
system.caches.L1Cache_Controller.Ack_all |       34107     98.93%     98.93% |         368      1.07%    100.00% (Unspecified)
system.caches.L1Cache_Controller.Ack_all::total        34475                       (Unspecified)
system.caches.L1Cache_Controller.WB_Ack  |    30220775     49.91%     49.91% |    30326268     50.09%    100.00% (Unspecified)
system.caches.L1Cache_Controller.WB_Ack::total     60547043                       (Unspecified)
system.caches.L1Cache_Controller.NP.Load |    27212510     49.94%     49.94% |    27281326     50.06%    100.00% (Unspecified)
system.caches.L1Cache_Controller.NP.Load::total     54493836                       (Unspecified)
system.caches.L1Cache_Controller.NP.Ifetch |      161991     66.42%     66.42% |       81886     33.58%    100.00% (Unspecified)
system.caches.L1Cache_Controller.NP.Ifetch::total       243877                       (Unspecified)
system.caches.L1Cache_Controller.NP.Store |     3087165     49.72%     49.72% |     3122344     50.28%    100.00% (Unspecified)
system.caches.L1Cache_Controller.NP.Store::total      6209509                       (Unspecified)
system.caches.L1Cache_Controller.NP.Inv  |        3755     38.86%     38.86% |        5908     61.14%    100.00% (Unspecified)
system.caches.L1Cache_Controller.NP.Inv::total         9663                       (Unspecified)
system.caches.L1Cache_Controller.I.Load  |       15525     26.33%     26.33% |       43432     73.67%    100.00% (Unspecified)
system.caches.L1Cache_Controller.I.Load::total        58957                       (Unspecified)
system.caches.L1Cache_Controller.I.Ifetch |       80825     53.84%     53.84% |       69302     46.16%    100.00% (Unspecified)
system.caches.L1Cache_Controller.I.Ifetch::total       150127                       (Unspecified)
system.caches.L1Cache_Controller.I.Store |        5795     60.24%     60.24% |        3825     39.76%    100.00% (Unspecified)
system.caches.L1Cache_Controller.I.Store::total         9620                       (Unspecified)
system.caches.L1Cache_Controller.I.L1_Replacement |        6183     49.12%     49.12% |        6404     50.88%    100.00% (Unspecified)
system.caches.L1Cache_Controller.I.L1_Replacement::total        12587                       (Unspecified)
system.caches.L1Cache_Controller.S.Load  |     1041625     45.46%     45.46% |     1249472     54.54%    100.00% (Unspecified)
system.caches.L1Cache_Controller.S.Load::total      2291097                       (Unspecified)
system.caches.L1Cache_Controller.S.Ifetch |  2073947768     49.99%     49.99% |  2074573573     50.01%    100.00% (Unspecified)
system.caches.L1Cache_Controller.S.Ifetch::total   4148521341                       (Unspecified)
system.caches.L1Cache_Controller.S.Store |       30758     98.83%     98.83% |         365      1.17%    100.00% (Unspecified)
system.caches.L1Cache_Controller.S.Store::total        31123                       (Unspecified)
system.caches.L1Cache_Controller.S.Inv   |       88749     44.71%     44.71% |      109765     55.29%    100.00% (Unspecified)
system.caches.L1Cache_Controller.S.Inv::total       198514                       (Unspecified)
system.caches.L1Cache_Controller.S.L1_Replacement |      226004     61.05%     61.05% |      144180     38.95%    100.00% (Unspecified)
system.caches.L1Cache_Controller.S.L1_Replacement::total       370184                       (Unspecified)
system.caches.L1Cache_Controller.E.Load  |   309702993     50.37%     50.37% |   305095840     49.63%    100.00% (Unspecified)
system.caches.L1Cache_Controller.E.Load::total    614798833                       (Unspecified)
system.caches.L1Cache_Controller.E.Store |     6716335     50.00%     50.00% |     6717115     50.00%    100.00% (Unspecified)
system.caches.L1Cache_Controller.E.Store::total     13433450                       (Unspecified)
system.caches.L1Cache_Controller.E.Inv   |       10133     61.37%     61.37% |        6379     38.63%    100.00% (Unspecified)
system.caches.L1Cache_Controller.E.Inv::total        16512                       (Unspecified)
system.caches.L1Cache_Controller.E.L1_Replacement |    20425634     49.92%     49.92% |    20490500     50.08%    100.00% (Unspecified)
system.caches.L1Cache_Controller.E.L1_Replacement::total     40916134                       (Unspecified)
system.caches.L1Cache_Controller.E.Fwd_GETX |           4      0.41%      0.41% |         963     99.59%    100.00% (Unspecified)
system.caches.L1Cache_Controller.E.Fwd_GETX::total          967                       (Unspecified)
system.caches.L1Cache_Controller.E.Fwd_GETS |        1465     32.82%     32.82% |        2999     67.18%    100.00% (Unspecified)
system.caches.L1Cache_Controller.E.Fwd_GETS::total         4464                       (Unspecified)
system.caches.L1Cache_Controller.M.Load  |   139339654     49.34%     49.34% |   143058806     50.66%    100.00% (Unspecified)
system.caches.L1Cache_Controller.M.Load::total    282398460                       (Unspecified)
system.caches.L1Cache_Controller.M.Store |   113626022     50.14%     50.14% |   112973246     49.86%    100.00% (Unspecified)
system.caches.L1Cache_Controller.M.Store::total    226599268                       (Unspecified)
system.caches.L1Cache_Controller.M.Inv   |        9675     61.04%     61.04% |        6176     38.96%    100.00% (Unspecified)
system.caches.L1Cache_Controller.M.Inv::total        15851                       (Unspecified)
system.caches.L1Cache_Controller.M.L1_Replacement |     9795141     49.90%     49.90% |     9835768     50.10%    100.00% (Unspecified)
system.caches.L1Cache_Controller.M.L1_Replacement::total     19630909                       (Unspecified)
system.caches.L1Cache_Controller.M.Fwd_GETX |          77     77.78%     77.78% |          22     22.22%    100.00% (Unspecified)
system.caches.L1Cache_Controller.M.Fwd_GETX::total           99                       (Unspecified)
system.caches.L1Cache_Controller.M.Fwd_GETS |       33724     99.25%     99.25% |         254      0.75%    100.00% (Unspecified)
system.caches.L1Cache_Controller.M.Fwd_GETS::total        33978                       (Unspecified)
system.caches.L1Cache_Controller.IS.Inv  |           0      0.00%      0.00% |           2    100.00%    100.00% (Unspecified)
system.caches.L1Cache_Controller.IS.Inv::total            2                       (Unspecified)
system.caches.L1Cache_Controller.IS.Data_Exclusive |    27160252     49.94%     49.94% |    27224644     50.06%    100.00% (Unspecified)
system.caches.L1Cache_Controller.IS.Data_Exclusive::total     54384896                       (Unspecified)
system.caches.L1Cache_Controller.IS.DataS_fromL1 |        3253      8.46%      8.46% |       35187     91.54%    100.00% (Unspecified)
system.caches.L1Cache_Controller.IS.DataS_fromL1::total        38440                       (Unspecified)
system.caches.L1Cache_Controller.IS.Data_all_Acks |      307345     58.71%     58.71% |      216112     41.29%    100.00% (Unspecified)
system.caches.L1Cache_Controller.IS.Data_all_Acks::total       523457                       (Unspecified)
system.caches.L1Cache_Controller.IM.Data |        3349     99.79%     99.79% |           7      0.21%    100.00% (Unspecified)
system.caches.L1Cache_Controller.IM.Data::total         3356                       (Unspecified)
system.caches.L1Cache_Controller.IM.Data_all_Acks |     3089611     49.71%     49.71% |     3126166     50.29%    100.00% (Unspecified)
system.caches.L1Cache_Controller.IM.Data_all_Acks::total      6215777                       (Unspecified)
system.caches.L1Cache_Controller.SM.Inv  |           0      0.00%      0.00% |           4    100.00%    100.00% (Unspecified)
system.caches.L1Cache_Controller.SM.Inv::total            4                       (Unspecified)
system.caches.L1Cache_Controller.SM.Ack  |       30758     98.84%     98.84% |         361      1.16%    100.00% (Unspecified)
system.caches.L1Cache_Controller.SM.Ack::total        31119                       (Unspecified)
system.caches.L1Cache_Controller.SM.Ack_all |       34107     98.93%     98.93% |         368      1.07%    100.00% (Unspecified)
system.caches.L1Cache_Controller.SM.Ack_all::total        34475                       (Unspecified)
system.caches.L1Cache_Controller.IS_I.DataS_fromL1 |           0      0.00%      0.00% |           2    100.00%    100.00% (Unspecified)
system.caches.L1Cache_Controller.IS_I.DataS_fromL1::total            2                       (Unspecified)
system.caches.L1Cache_Controller.M_I.WB_Ack |    30220775     49.91%     49.91% |    30326268     50.09%    100.00% (Unspecified)
system.caches.L1Cache_Controller.M_I.WB_Ack::total     60547043                       (Unspecified)
system.caches.Directory_Controller.Fetch     49984285      0.00%      0.00% (Unspecified)
system.caches.Directory_Controller.Data      14384633      0.00%      0.00% (Unspecified)
system.caches.Directory_Controller.Memory_Data     49984311      0.00%      0.00% (Unspecified)
system.caches.Directory_Controller.Memory_Ack     14384633      0.00%      0.00% (Unspecified)
system.caches.Directory_Controller.DMA_READ         2402      0.00%      0.00% (Unspecified)
system.caches.Directory_Controller.CleanReplacement     35468580      0.00%      0.00% (Unspecified)
system.caches.Directory_Controller.I.Fetch     49984285      0.00%      0.00% (Unspecified)
system.caches.Directory_Controller.I.DMA_READ           28      0.00%      0.00% (Unspecified)
system.caches.Directory_Controller.ID.Memory_Data           28      0.00%      0.00% (Unspecified)
system.caches.Directory_Controller.M.Data     14382259      0.00%      0.00% (Unspecified)
system.caches.Directory_Controller.M.DMA_READ         2374      0.00%      0.00% (Unspecified)
system.caches.Directory_Controller.M.CleanReplacement     35468580      0.00%      0.00% (Unspecified)
system.caches.Directory_Controller.IM.Memory_Data     49984283      0.00%      0.00% (Unspecified)
system.caches.Directory_Controller.MI.Memory_Ack     14382259      0.00%      0.00% (Unspecified)
system.caches.Directory_Controller.M_DRD.Data         2374      0.00%      0.00% (Unspecified)
system.caches.Directory_Controller.M_DRDI.Memory_Ack         2374      0.00%      0.00% (Unspecified)
system.caches.DMA_Controller.ReadRequest |        2402    100.00%    100.00% |           0      0.00%    100.00% (Unspecified)
system.caches.DMA_Controller.ReadRequest::total         2402                       (Unspecified)
system.caches.DMA_Controller.Data        |        2402    100.00%    100.00% |           0      0.00%    100.00% (Unspecified)
system.caches.DMA_Controller.Data::total         2402                       (Unspecified)
system.caches.DMA_Controller.READY.ReadRequest |        2402    100.00%    100.00% |           0      0.00%    100.00% (Unspecified)
system.caches.DMA_Controller.READY.ReadRequest::total         2402                       (Unspecified)
system.caches.DMA_Controller.BUSY_RD.Data |        2402    100.00%    100.00% |           0      0.00%    100.00% (Unspecified)
system.caches.DMA_Controller.BUSY_RD.Data::total         2402                       (Unspecified)
system.caches.L2Cache_Controller.L1_GET_INSTR |       37639      9.55%      9.55% |       60751     15.41%     24.96% |       57588     14.61%     39.58% |       19426      4.93%     44.51% |       37862      9.61%     54.11% |       52669     13.36%     67.48% |       60573     15.37%     82.85% |       67611     17.15%    100.00% (Unspecified)
system.caches.L2Cache_Controller.L1_GET_INSTR::total       394119                       (Unspecified)
system.caches.L2Cache_Controller.L1_GETS |     6835958     12.53%     12.53% |     6825651     12.51%     25.04% |     6815652     12.49%     37.53% |     6809955     12.48%     50.01% |     6818250     12.50%     62.50% |     6805231     12.47%     74.97% |     6837017     12.53%     87.50% |     6818305     12.50%    100.00% (Unspecified)
system.caches.L2Cache_Controller.L1_GETS::total     54566019                       (Unspecified)
system.caches.L2Cache_Controller.L1_GETX |      783898     12.60%     12.60% |      774943     12.46%     25.07% |      773943     12.44%     37.51% |      774931     12.46%     49.97% |      774441     12.45%     62.42% |      782537     12.58%     75.01% |      776831     12.49%     87.50% |      777645     12.50%    100.00% (Unspecified)
system.caches.L2Cache_Controller.L1_GETX::total      6219169                       (Unspecified)
system.caches.L2Cache_Controller.L1_UPGRADE |        5677     13.48%     13.48% |        4076      9.68%     23.17% |          46      0.11%     23.28% |          32      0.08%     23.35% |         117      0.28%     23.63% |          29      0.07%     23.70% |       32006     76.03%     99.72% |         116      0.28%    100.00% (Unspecified)
system.caches.L2Cache_Controller.L1_UPGRADE::total        42099                       (Unspecified)
system.caches.L2Cache_Controller.L1_PUTX |     7569810     12.50%     12.50% |     7569898     12.50%     25.00% |     7563402     12.49%     37.50% |     7567837     12.50%     50.00% |     7569630     12.50%     62.50% |     7570876     12.50%     75.00% |     7565825     12.50%     87.50% |     7569765     12.50%    100.00% (Unspecified)
system.caches.L2Cache_Controller.L1_PUTX::total     60547043                       (Unspecified)
system.caches.L2Cache_Controller.L2_Replacement |     1796949     12.50%     12.50% |     1796302     12.50%     25.00% |     1796577     12.50%     37.50% |     1795993     12.50%     50.00% |     1796351     12.50%     62.49% |     1796882     12.50%     75.00% |     1796692     12.50%     87.50% |     1796962     12.50%    100.00% (Unspecified)
system.caches.L2Cache_Controller.L2_Replacement::total     14372708                       (Unspecified)
system.caches.L2Cache_Controller.L2_Replacement_clean |     4435187     12.50%     12.50% |     4436498     12.50%     25.01% |     4434072     12.50%     37.50% |     4432751     12.49%     50.00% |     4435945     12.50%     62.50% |     4435298     12.50%     75.00% |     4433014     12.50%     87.50% |     4435366     12.50%    100.00% (Unspecified)
system.caches.L2Cache_Controller.L2_Replacement_clean::total     35478131                       (Unspecified)
system.caches.L2Cache_Controller.Mem_Data |     6248818     12.50%     12.50% |     6249481     12.50%     25.00% |     6247330     12.50%     37.50% |     6245425     12.49%     50.00% |     6248976     12.50%     62.50% |     6248860     12.50%     75.00% |     6246385     12.50%     87.50% |     6249008     12.50%    100.00% (Unspecified)
system.caches.L2Cache_Controller.Mem_Data::total     49984283                       (Unspecified)
system.caches.L2Cache_Controller.Mem_Ack |     6232435     12.50%     12.50% |     6233097     12.50%     25.00% |     6230946     12.50%     37.50% |     6229041     12.49%     50.00% |     6232592     12.50%     62.50% |     6232476     12.50%     75.00% |     6230002     12.50%     87.50% |     6232624     12.50%    100.00% (Unspecified)
system.caches.L2Cache_Controller.Mem_Ack::total     49853213                       (Unspecified)
system.caches.L2Cache_Controller.WB_Data |       10416     20.90%     20.90% |        4863      9.76%     30.66% |        1160      2.33%     32.99% |        1865      3.74%     36.73% |        2007      4.03%     40.76% |        3457      6.94%     47.70% |       23725     47.61%     95.31% |        2336      4.69%    100.00% (Unspecified)
system.caches.L2Cache_Controller.WB_Data::total        49829                       (Unspecified)
system.caches.L2Cache_Controller.WB_Data_clean |         709     15.88%     15.88% |         915     20.50%     36.38% |         760     17.03%     53.41% |         306      6.85%     60.26% |         573     12.84%     73.10% |         323      7.24%     80.33% |         264      5.91%     86.25% |         614     13.75%    100.00% (Unspecified)
system.caches.L2Cache_Controller.WB_Data_clean::total         4464                       (Unspecified)
system.caches.L2Cache_Controller.Ack     |       10094     13.36%     13.36% |        9931     13.15%     26.51% |        9266     12.27%     38.78% |        8154     10.79%     49.57% |       10190     13.49%     63.06% |        9996     13.23%     76.29% |        8812     11.67%     87.96% |        9097     12.04%    100.00% (Unspecified)
system.caches.L2Cache_Controller.Ack::total        75540                       (Unspecified)
system.caches.L2Cache_Controller.Ack_all |       14588     12.72%     12.72% |       16372     14.28%     27.00% |       13927     12.14%     39.14% |       12700     11.07%     50.22% |       15586     13.59%     63.81% |       14028     12.23%     76.04% |       12766     11.13%     87.17% |       14713     12.83%    100.00% (Unspecified)
system.caches.L2Cache_Controller.Ack_all::total       114680                       (Unspecified)
system.caches.L2Cache_Controller.Unblock |        8955     23.29%     23.29% |        4488     11.67%     34.97% |         804      2.09%     37.06% |         335      0.87%     37.93% |         709      1.84%     39.78% |         360      0.94%     40.71% |       22053     57.37%     98.08% |         738      1.92%    100.00% (Unspecified)
system.caches.L2Cache_Controller.Unblock::total        38442                       (Unspecified)
system.caches.L2Cache_Controller.Exclusive_Unblock |     7585212     12.51%     12.51% |     7580751     12.50%     25.01% |     7569178     12.48%     37.49% |     7573923     12.49%     49.99% |     7577334     12.50%     62.48% |     7578395     12.50%     74.98% |     7593667     12.52%     87.50% |     7576688     12.50%    100.00% (Unspecified)
system.caches.L2Cache_Controller.Exclusive_Unblock::total     60635148                       (Unspecified)
system.caches.L2Cache_Controller.MEM_Inv |         598     12.59%     12.59% |         594     12.51%     25.11% |         594     12.51%     37.62% |         594     12.51%     50.13% |         592     12.47%     62.59% |         592     12.47%     75.06% |         592     12.47%     87.53% |         592     12.47%    100.00% (Unspecified)
system.caches.L2Cache_Controller.MEM_Inv::total         4748                       (Unspecified)
system.caches.L2Cache_Controller.NP.L1_GET_INSTR |       12076     13.12%     13.12% |       12598     13.69%     26.82% |       10938     11.89%     38.70% |       10357     11.26%     49.96% |       11742     12.76%     62.72% |       11764     12.79%     75.50% |       10676     11.60%     87.11% |       11863     12.89%    100.00% (Unspecified)
system.caches.L2Cache_Controller.NP.L1_GET_INSTR::total        92014                       (Unspecified)
system.caches.L2Cache_Controller.NP.L1_GETS |     5465442     12.50%     12.50% |     5466584     12.50%     25.00% |     5466228     12.50%     37.50% |     5464847     12.50%     50.00% |     5467160     12.50%     62.50% |     5465446     12.50%     75.00% |     5465275     12.50%     87.50% |     5466224     12.50%    100.00% (Unspecified)
system.caches.L2Cache_Controller.NP.L1_GETS::total     43727206                       (Unspecified)
system.caches.L2Cache_Controller.NP.L1_GETX |      771301     12.51%     12.51% |      770299     12.49%     25.01% |      770164     12.49%     37.50% |      770221     12.49%     49.99% |      770074     12.49%     62.48% |      771650     12.52%     75.00% |      770435     12.50%     87.50% |      770921     12.50%    100.00% (Unspecified)
system.caches.L2Cache_Controller.NP.L1_GETX::total      6165065                       (Unspecified)
system.caches.L2Cache_Controller.SS.L1_GET_INSTR |       21606      7.89%      7.89% |       43899     16.03%     23.92% |       43277     15.80%     39.72% |        5803      2.12%     41.84% |       22467      8.20%     50.04% |       37117     13.55%     63.59% |       46853     17.11%     80.70% |       52865     19.30%    100.00% (Unspecified)
system.caches.L2Cache_Controller.SS.L1_GET_INSTR::total       273887                       (Unspecified)
system.caches.L2Cache_Controller.SS.L1_GETS |       30277     24.32%     24.32% |       18637     14.97%     39.29% |       18752     15.06%     54.35% |       10209      8.20%     62.55% |       14281     11.47%     74.02% |        8443      6.78%     80.80% |        5954      4.78%     85.59% |       17946     14.41%    100.00% (Unspecified)
system.caches.L2Cache_Controller.SS.L1_GETS::total       124499                       (Unspecified)
system.caches.L2Cache_Controller.SS.L1_GETX |        2576     76.76%     76.76% |           4      0.12%     76.88% |           1      0.03%     76.91% |           1      0.03%     76.94% |          15      0.45%     77.38% |           1      0.03%     77.41% |         755     22.50%     99.91% |           3      0.09%    100.00% (Unspecified)
system.caches.L2Cache_Controller.SS.L1_GETX::total         3356                       (Unspecified)
system.caches.L2Cache_Controller.SS.L1_UPGRADE |        5673     18.23%     18.23% |        4076     13.10%     31.33% |          46      0.15%     31.48% |          32      0.10%     31.58% |         117      0.38%     31.95% |          29      0.09%     32.05% |       21030     67.58%     99.63% |         116      0.37%    100.00% (Unspecified)
system.caches.L2Cache_Controller.SS.L1_UPGRADE::total        31119                       (Unspecified)
system.caches.L2Cache_Controller.SS.L2_Replacement |           7      9.86%      9.86% |          13     18.31%     28.17% |           8     11.27%     39.44% |           4      5.63%     45.07% |          12     16.90%     61.97% |          11     15.49%     77.46% |           8     11.27%     88.73% |           8     11.27%    100.00% (Unspecified)
system.caches.L2Cache_Controller.SS.L2_Replacement::total           71                       (Unspecified)
system.caches.L2Cache_Controller.SS.L2_Replacement_clean |       13271     13.53%     13.53% |       13343     13.60%     27.13% |       12098     12.33%     39.46% |       10828     11.04%     50.50% |       12482     12.72%     63.23% |       12322     12.56%     75.79% |       10980     11.19%     86.98% |       12773     13.02%    100.00% (Unspecified)
system.caches.L2Cache_Controller.SS.L2_Replacement_clean::total        98097                       (Unspecified)
system.caches.L2Cache_Controller.M.L1_GETS |     1330738     12.48%     12.48% |     1335543     12.53%     25.01% |     1329412     12.47%     37.48% |     1334316     12.52%     50.00% |     1335833     12.53%     62.53% |     1330670     12.48%     75.01% |     1330608     12.48%     87.50% |     1333049     12.50%    100.00% (Unspecified)
system.caches.L2Cache_Controller.M.L1_GETS::total     10660169                       (Unspecified)
system.caches.L2Cache_Controller.M.L1_GETX |        9070     18.27%     18.27% |        4606      9.28%     27.55% |        3769      7.59%     35.14% |        4692      9.45%     44.59% |        4342      8.75%     53.34% |       10864     21.88%     75.22% |        5602     11.28%     86.50% |        6701     13.50%    100.00% (Unspecified)
system.caches.L2Cache_Controller.M.L1_GETX::total        49646                       (Unspecified)
system.caches.L2Cache_Controller.M.L2_Replacement |     1796044     12.50%     12.50% |     1795745     12.50%     25.00% |     1796138     12.50%     37.50% |     1795258     12.50%     50.00% |     1795694     12.50%     62.50% |     1795607     12.50%     75.00% |     1795840     12.50%     87.50% |     1796054     12.50%    100.00% (Unspecified)
system.caches.L2Cache_Controller.M.L2_Replacement::total     14366380                       (Unspecified)
system.caches.L2Cache_Controller.M.L2_Replacement_clean |     4419594     12.50%     12.50% |     4419656     12.50%     25.00% |     4419731     12.50%     37.50% |     4419215     12.50%     50.00% |     4419409     12.50%     62.50% |     4419388     12.50%     75.00% |     4419424     12.50%     87.50% |     4419610     12.50%    100.00% (Unspecified)
system.caches.L2Cache_Controller.M.L2_Replacement_clean::total     35356027                       (Unspecified)
system.caches.L2Cache_Controller.M.MEM_Inv |          39     14.18%     14.18% |          34     12.36%     26.55% |          34     12.36%     38.91% |          32     11.64%     50.55% |          32     11.64%     62.18% |          33     12.00%     74.18% |          36     13.09%     87.27% |          35     12.73%    100.00% (Unspecified)
system.caches.L2Cache_Controller.M.MEM_Inv::total          275                       (Unspecified)
system.caches.L2Cache_Controller.MT.L1_GETS |        8955     23.29%     23.29% |        4488     11.67%     34.97% |         804      2.09%     37.06% |         335      0.87%     37.93% |         709      1.84%     39.78% |         360      0.94%     40.71% |       22053     57.37%     98.08% |         738      1.92%    100.00% (Unspecified)
system.caches.L2Cache_Controller.MT.L1_GETS::total        38442                       (Unspecified)
system.caches.L2Cache_Controller.MT.L1_GETX |         949     89.02%     89.02% |          29      2.72%     91.74% |           9      0.84%     92.59% |          13      1.22%     93.81% |           5      0.47%     94.28% |          10      0.94%     95.22% |          37      3.47%     98.69% |          14      1.31%    100.00% (Unspecified)
system.caches.L2Cache_Controller.MT.L1_GETX::total         1066                       (Unspecified)
system.caches.L2Cache_Controller.MT.L1_PUTX |     7569810     12.50%     12.50% |     7569898     12.50%     25.00% |     7563402     12.49%     37.50% |     7567837     12.50%     50.00% |     7569630     12.50%     62.50% |     7570876     12.50%     75.00% |     7565825     12.50%     87.50% |     7569765     12.50%    100.00% (Unspecified)
system.caches.L2Cache_Controller.MT.L1_PUTX::total     60547043                       (Unspecified)
system.caches.L2Cache_Controller.MT.L2_Replacement |         898     14.35%     14.35% |         544      8.69%     23.05% |         431      6.89%     29.93% |         731     11.68%     41.62% |         645     10.31%     51.93% |        1264     20.20%     72.13% |         844     13.49%     85.62% |         900     14.38%    100.00% (Unspecified)
system.caches.L2Cache_Controller.MT.L2_Replacement::total         6257                       (Unspecified)
system.caches.L2Cache_Controller.MT.L2_Replacement_clean |        2322      9.67%      9.67% |        3499     14.57%     24.25% |        2243      9.34%     33.59% |        2708     11.28%     44.87% |        4054     16.89%     61.76% |        3588     14.95%     76.70% |        2610     10.87%     87.57% |        2983     12.43%    100.00% (Unspecified)
system.caches.L2Cache_Controller.MT.L2_Replacement_clean::total        24007                       (Unspecified)
system.caches.L2Cache_Controller.MT.MEM_Inv |         260     12.39%     12.39% |         263     12.53%     24.92% |         263     12.53%     37.45% |         265     12.63%     50.07% |         264     12.58%     62.65% |         263     12.53%     75.18% |         260     12.39%     87.57% |         261     12.43%    100.00% (Unspecified)
system.caches.L2Cache_Controller.MT.MEM_Inv::total         2099                       (Unspecified)
system.caches.L2Cache_Controller.M_I.L1_GET_INSTR |          11      9.57%      9.57% |          10      8.70%     18.26% |          18     15.65%     33.91% |          20     17.39%     51.30% |          23     20.00%     71.30% |          16     13.91%     85.22% |           8      6.96%     92.17% |           9      7.83%    100.00% (Unspecified)
system.caches.L2Cache_Controller.M_I.L1_GET_INSTR::total          115                       (Unspecified)
system.caches.L2Cache_Controller.M_I.L1_GETS |           6      4.03%      4.03% |           0      0.00%      4.03% |           0      0.00%      4.03% |          46     30.87%     34.90% |          48     32.21%     67.11% |          36     24.16%     91.28% |           7      4.70%     95.97% |           6      4.03%    100.00% (Unspecified)
system.caches.L2Cache_Controller.M_I.L1_GETS::total          149                       (Unspecified)
system.caches.L2Cache_Controller.M_I.L1_GETX |           2      6.25%      6.25% |           1      3.12%      9.38% |           0      0.00%      9.38% |           4     12.50%     21.88% |           5     15.62%     37.50% |          12     37.50%     75.00% |           2      6.25%     81.25% |           6     18.75%    100.00% (Unspecified)
system.caches.L2Cache_Controller.M_I.L1_GETX::total           32                       (Unspecified)
system.caches.L2Cache_Controller.M_I.Mem_Ack |     6232435     12.50%     12.50% |     6233097     12.50%     25.00% |     6230946     12.50%     37.50% |     6229041     12.49%     50.00% |     6232592     12.50%     62.50% |     6232476     12.50%     75.00% |     6230002     12.50%     87.50% |     6232624     12.50%    100.00% (Unspecified)
system.caches.L2Cache_Controller.M_I.Mem_Ack::total     49853213                       (Unspecified)
system.caches.L2Cache_Controller.M_I.MEM_Inv |          39     14.18%     14.18% |          34     12.36%     26.55% |          34     12.36%     38.91% |          32     11.64%     50.55% |          32     11.64%     62.18% |          33     12.00%     74.18% |          36     13.09%     87.27% |          35     12.73%    100.00% (Unspecified)
system.caches.L2Cache_Controller.M_I.MEM_Inv::total          275                       (Unspecified)
system.caches.L2Cache_Controller.MT_I.WB_Data |         910     14.44%     14.44% |         550      8.73%     23.17% |         447      7.10%     30.27% |         739     11.73%     42.00% |         652     10.35%     52.35% |        1273     20.21%     72.56% |         824     13.08%     85.63% |         905     14.37%    100.00% (Unspecified)
system.caches.L2Cache_Controller.MT_I.WB_Data::total         6300                       (Unspecified)
system.caches.L2Cache_Controller.MT_I.Ack_all |         248     12.06%     12.06% |         257     12.50%     24.56% |         247     12.01%     36.58% |         257     12.50%     49.08% |         257     12.50%     61.58% |         254     12.35%     73.93% |         280     13.62%     87.55% |         256     12.45%    100.00% (Unspecified)
system.caches.L2Cache_Controller.MT_I.Ack_all::total         2056                       (Unspecified)
system.caches.L2Cache_Controller.MT_I.MEM_Inv |         260     12.39%     12.39% |         263     12.53%     24.92% |         263     12.53%     37.45% |         265     12.63%     50.07% |         264     12.58%     62.65% |         263     12.53%     75.18% |         260     12.39%     87.57% |         261     12.43%    100.00% (Unspecified)
system.caches.L2Cache_Controller.MT_I.MEM_Inv::total         2099                       (Unspecified)
system.caches.L2Cache_Controller.MCT_I.WB_Data |        1260     13.19%     13.19% |         740      7.75%     20.94% |         669      7.00%     27.94% |        1097     11.49%     39.43% |        1219     12.76%     52.19% |        2147     22.48%     74.67% |        1112     11.64%     86.32% |        1307     13.68%    100.00% (Unspecified)
system.caches.L2Cache_Controller.MCT_I.WB_Data::total         9551                       (Unspecified)
system.caches.L2Cache_Controller.MCT_I.Ack_all |        1062      7.35%      7.35% |        2759     19.09%     26.43% |        1574     10.89%     37.32% |        1611     11.14%     48.46% |        2835     19.61%     68.08% |        1441      9.97%     78.04% |        1498     10.36%     88.41% |        1676     11.59%    100.00% (Unspecified)
system.caches.L2Cache_Controller.MCT_I.Ack_all::total        14456                       (Unspecified)
system.caches.L2Cache_Controller.I_I.Ack |       10087     13.37%     13.37% |        9918     13.14%     26.51% |        9258     12.27%     38.77% |        8150     10.80%     49.57% |       10178     13.49%     63.06% |        9985     13.23%     76.29% |        8804     11.67%     87.96% |        9089     12.04%    100.00% (Unspecified)
system.caches.L2Cache_Controller.I_I.Ack::total        75469                       (Unspecified)
system.caches.L2Cache_Controller.I_I.Ack_all |       13271     13.53%     13.53% |       13343     13.60%     27.13% |       12098     12.33%     39.46% |       10828     11.04%     50.50% |       12482     12.72%     63.23% |       12322     12.56%     75.79% |       10980     11.19%     86.98% |       12773     13.02%    100.00% (Unspecified)
system.caches.L2Cache_Controller.I_I.Ack_all::total        98097                       (Unspecified)
system.caches.L2Cache_Controller.S_I.Ack |           7      9.86%      9.86% |          13     18.31%     28.17% |           8     11.27%     39.44% |           4      5.63%     45.07% |          12     16.90%     61.97% |          11     15.49%     77.46% |           8     11.27%     88.73% |           8     11.27%    100.00% (Unspecified)
system.caches.L2Cache_Controller.S_I.Ack::total           71                       (Unspecified)
system.caches.L2Cache_Controller.S_I.Ack_all |           7      9.86%      9.86% |          13     18.31%     28.17% |           8     11.27%     39.44% |           4      5.63%     45.07% |          12     16.90%     61.97% |          11     15.49%     77.46% |           8     11.27%     88.73% |           8     11.27%    100.00% (Unspecified)
system.caches.L2Cache_Controller.S_I.Ack_all::total           71                       (Unspecified)
system.caches.L2Cache_Controller.ISS.L1_GETS |         536     21.64%     21.64% |         390     15.74%     37.38% |         451     18.21%     55.59% |         199      8.03%     63.63% |         212      8.56%     72.18% |         275     11.10%     83.29% |          74      2.99%     86.27% |         340     13.73%    100.00% (Unspecified)
system.caches.L2Cache_Controller.ISS.L1_GETS::total         2477                       (Unspecified)
system.caches.L2Cache_Controller.ISS.Mem_Data |     5464905     12.50%     12.50% |     5466194     12.50%     25.00% |     5465777     12.50%     37.50% |     5464648     12.50%     50.00% |     5466948     12.50%     62.50% |     5465171     12.50%     75.00% |     5465200     12.50%     87.50% |     5465884     12.50%    100.00% (Unspecified)
system.caches.L2Cache_Controller.ISS.Mem_Data::total     43724727                       (Unspecified)
system.caches.L2Cache_Controller.IS.L1_GET_INSTR |        3946     14.04%     14.04% |        4244     15.10%     29.14% |        3355     11.94%     41.08% |        3246     11.55%     52.63% |        3630     12.92%     65.55% |        3772     13.42%     78.97% |        3036     10.80%     89.77% |        2874     10.23%    100.00% (Unspecified)
system.caches.L2Cache_Controller.IS.L1_GET_INSTR::total        28103                       (Unspecified)
system.caches.L2Cache_Controller.IS.Mem_Data |       12612     13.35%     13.35% |       12988     13.75%     27.09% |       11389     12.05%     39.15% |       10556     11.17%     50.32% |       11954     12.65%     62.97% |       12039     12.74%     75.71% |       10750     11.38%     87.09% |       12203     12.91%    100.00% (Unspecified)
system.caches.L2Cache_Controller.IS.Mem_Data::total        94491                       (Unspecified)
system.caches.L2Cache_Controller.IM.L1_GETX |           0      0.00%      0.00% |           4    100.00%    100.00% |           0      0.00%    100.00% |           0      0.00%    100.00% |           0      0.00%    100.00% |           0      0.00%    100.00% |           0      0.00%    100.00% |           0      0.00%    100.00% (Unspecified)
system.caches.L2Cache_Controller.IM.L1_GETX::total            4                       (Unspecified)
system.caches.L2Cache_Controller.IM.Mem_Data |      771301     12.51%     12.51% |      770299     12.49%     25.01% |      770164     12.49%     37.50% |      770221     12.49%     49.99% |      770074     12.49%     62.48% |      771650     12.52%     75.00% |      770435     12.50%     87.50% |      770921     12.50%    100.00% (Unspecified)
system.caches.L2Cache_Controller.IM.Mem_Data::total      6165065                       (Unspecified)
system.caches.L2Cache_Controller.SS_MB.L1_GETS |           1      0.01%      0.01% |           0      0.00%      0.01% |           0      0.00%      0.01% |           0      0.00%      0.01% |           1      0.01%      0.02% |           0      0.00%      0.02% |       13045     99.98%    100.00% |           0      0.00%    100.00% (Unspecified)
system.caches.L2Cache_Controller.SS_MB.L1_GETS::total        13047                       (Unspecified)
system.caches.L2Cache_Controller.SS_MB.L1_UPGRADE |           4    100.00%    100.00% |           0      0.00%    100.00% |           0      0.00%    100.00% |           0      0.00%    100.00% |           0      0.00%    100.00% |           0      0.00%    100.00% |           0      0.00%    100.00% |           0      0.00%    100.00% (Unspecified)
system.caches.L2Cache_Controller.SS_MB.L1_UPGRADE::total            4                       (Unspecified)
system.caches.L2Cache_Controller.SS_MB.Exclusive_Unblock |        8249     23.93%     23.93% |        4080     11.83%     35.76% |          47      0.14%     35.90% |          33      0.10%     35.99% |         132      0.38%     36.38% |          30      0.09%     36.46% |       21785     63.19%     99.65% |         119      0.35%    100.00% (Unspecified)
system.caches.L2Cache_Controller.SS_MB.Exclusive_Unblock::total        34475                       (Unspecified)
system.caches.L2Cache_Controller.MT_MB.L1_GETS |           3     10.00%     10.00% |           9     30.00%     40.00% |           5     16.67%     56.67% |           3     10.00%     66.67% |           6     20.00%     86.67% |           1      3.33%     90.00% |           1      3.33%     93.33% |           2      6.67%    100.00% (Unspecified)
system.caches.L2Cache_Controller.MT_MB.L1_GETS::total           30                       (Unspecified)
system.caches.L2Cache_Controller.MT_MB.Exclusive_Unblock |     7576963     12.50%     12.50% |     7576671     12.50%     25.01% |     7569131     12.49%     37.50% |     7573890     12.50%     49.99% |     7577202     12.50%     62.50% |     7578365     12.51%     75.00% |     7571882     12.49%     87.50% |     7576569     12.50%    100.00% (Unspecified)
system.caches.L2Cache_Controller.MT_MB.Exclusive_Unblock::total     60600673                       (Unspecified)
system.caches.L2Cache_Controller.MT_IIB.WB_Data |        8246     24.27%     24.27% |        3573     10.52%     34.78% |          44      0.13%     34.91% |          29      0.09%     35.00% |         136      0.40%     35.40% |          37      0.11%     35.51% |       21789     64.13%     99.64% |         124      0.36%    100.00% (Unspecified)
system.caches.L2Cache_Controller.MT_IIB.WB_Data::total        33978                       (Unspecified)
[...]
system.timingCpu0.exec_context.thread_0.statExecutedInstType::FloatMemWrite    120366262      5.70%    100.00% # Class of executed instruction. (Count)
system.timingCpu0.exec_context.thread_0.statExecutedInstType::IprAccess            0      0.00%    100.00% # Class of executed instruction. (Count)
system.timingCpu0.exec_context.thread_0.statExecutedInstType::InstPrefetch            0      0.00%    100.00% # Class of executed instruction. (Count)
system.timingCpu0.exec_context.thread_0.statExecutedInstType::total   2113270874                       # Class of executed instruction. (Count)
system.timingCpu0.mmu.dtb.rdAccesses        477166263                       # TLB accesses on read requests (Count)
system.timingCpu0.mmu.dtb.wrAccesses        123167720                       # TLB accesses on write requests (Count)
system.timingCpu0.mmu.dtb.rdMisses             148102                       # TLB misses on read requests (Count)
system.timingCpu0.mmu.dtb.wrMisses              16399                       # TLB misses on write requests (Count)
system.timingCpu0.mmu.dtb.walker.power_state.pwrStateResidencyTicks::UNDEFINED 23737467399750                       # Cumulative time (in ticks) in various power states (Tick)
system.timingCpu0.mmu.itb.rdAccesses                0                       # TLB accesses on read requests (Count)
system.timingCpu0.mmu.itb.wrAccesses       2074196800                       # TLB accesses on write requests (Count)
system.timingCpu0.mmu.itb.rdMisses                  0                       # TLB misses on read requests (Count)
system.timingCpu0.mmu.itb.wrMisses               6216                       # TLB misses on write requests (Count)
system.timingCpu0.mmu.itb.walker.power_state.pwrStateResidencyTicks::UNDEFINED 23737467399750                       # Cumulative time (in ticks) in various power states (Tick)
system.timingCpu0.power_state.numTransitions           30                       # Number of power state transitions (Count)
system.timingCpu0.power_state.ticksClkGated::samples           15                       # Distribution of time spent in the clock gated state (Tick)
system.timingCpu0.power_state.ticksClkGated::mean 926950366.666667                       # Distribution of time spent in the clock gated state (Tick)
system.timingCpu0.power_state.ticksClkGated::stdev 203600589.714358                       # Distribution of time spent in the clock gated state (Tick)
system.timingCpu0.power_state.ticksClkGated::1000-5e+10           15    100.00%    100.00% # Distribution of time spent in the clock gated state (Tick)
system.timingCpu0.power_state.ticksClkGated::min_value    242456000                       # Distribution of time spent in the clock gated state (Tick)
system.timingCpu0.power_state.ticksClkGated::max_value    997919750                       # Distribution of time spent in the clock gated state (Tick)
system.timingCpu0.power_state.ticksClkGated::total           15                       # Distribution of time spent in the clock gated state (Tick)
system.timingCpu0.power_state.pwrStateResidencyTicks::ON 3903269331500                       # Cumulative time (in ticks) in various power states (Tick)
system.timingCpu0.power_state.pwrStateResidencyTicks::CLK_GATED  13904255500                       # Cumulative time (in ticks) in various power states (Tick)
system.timingCpu0.power_state.pwrStateResidencyTicks::OFF 19820293812750                       # Cumulative time (in ticks) in various power states (Tick)
system.timingCpu0.thread_0.numInsts                 0                       # Number of Instructions committed (Count)
system.timingCpu0.thread_0.numOps                   0                       # Number of Ops committed (Count)
system.timingCpu0.thread_0.numMemRefs               0                       # Number of Memory References (Count)
system.timingCpu1.numCycles               19999999931                       # Number of cpu cycles simulated (Cycle)
system.timingCpu1.numWorkItemsStarted               0                       # Number of work items this cpu started (Count)
system.timingCpu1.numWorkItemsCompleted             0                       # Number of work items this cpu completed (Count)
system.timingCpu1.exec_context.thread_0.numInsts   1335817920                       # Number of instructions committed (Count)
system.timingCpu1.exec_context.thread_0.numOps   2109257938                       # Number of ops (including micro ops) committed (Count)
system.timingCpu1.exec_context.thread_0.numIntAluAccesses    770172211                       # Number of integer alu accesses (Count)
system.timingCpu1.exec_context.thread_0.numFpAluAccesses   1930154432                       # Number of float alu accesses (Count)
system.timingCpu1.exec_context.thread_0.numVecAluAccesses            0                       # Number of vector alu accesses (Count)
system.timingCpu1.exec_context.thread_0.numCallsReturns       777688                       # Number of times a function call or return occured (Count)
system.timingCpu1.exec_context.thread_0.numCondCtrlInsts     13681564                       # Number of instructions that are conditional controls (Count)
system.timingCpu1.exec_context.thread_0.numIntInsts    770172211                       # Number of integer instructions (Count)
system.timingCpu1.exec_context.thread_0.numFpInsts   1930154432                       # Number of float instructions (Count)
system.timingCpu1.exec_context.thread_0.numVecInsts            0                       # Number of vector instructions (Count)
system.timingCpu1.exec_context.thread_0.numIntRegReads    777864713                       # Number of times the integer registers were read (Count)
system.timingCpu1.exec_context.thread_0.numIntRegWrites    148148387                       # Number of times the integer registers were written (Count)
system.timingCpu1.exec_context.thread_0.numFpRegReads   3186481287                       # Number of times the floating registers were read (Count)
system.timingCpu1.exec_context.thread_0.numFpRegWrites   1809351497                       # Number of times the floating registers were written (Count)
system.timingCpu1.exec_context.thread_0.numVecRegReads            0                       # Number of times the vector registers were read (Count)
system.timingCpu1.exec_context.thread_0.numVecRegWrites            0                       # Number of times the vector registers were written (Count)
system.timingCpu1.exec_context.thread_0.numVecPredRegReads            0                       # Number of times the predicate registers were read (Count)
system.timingCpu1.exec_context.thread_0.numVecPredRegWrites            0                       # Number of times the predicate registers were written (Count)
system.timingCpu1.exec_context.thread_0.numCCRegReads     72542466                       # Number of times the CC registers were read (Count)
system.timingCpu1.exec_context.thread_0.numCCRegWrites    134518913                       # Number of times the CC registers were written (Count)
system.timingCpu1.exec_context.thread_0.numMiscRegReads    628923319                       # Number of times the Misc registers were read (Count)
system.timingCpu1.exec_context.thread_0.numMiscRegWrites       172230                       # Number of times the Misc registers were written (Count)
system.timingCpu1.exec_context.thread_0.numMemRefs    598978961                       # Number of memory refs (Count)
system.timingCpu1.exec_context.thread_0.numLoadInsts    476384693                       # Number of load instructions (Count)
system.timingCpu1.exec_context.thread_0.numStoreInsts    122594268                       # Number of store instructions (Count)
system.timingCpu1.exec_context.thread_0.numIdleCycles 13354336.953925                       # Number of idle cycles (Cycle)
system.timingCpu1.exec_context.thread_0.numBusyCycles 19986645594.046074                       # Number of busy cycles (Cycle)
system.timingCpu1.exec_context.thread_0.notIdleFraction     0.999332                       # Percentage of non-idle cycles (Ratio)
system.timingCpu1.exec_context.thread_0.idleFraction     0.000668                       # Percentage of idle cycles (Ratio)
system.timingCpu1.exec_context.thread_0.numBranches     14888215                       # Number of branches fetched (Count)
system.timingCpu1.exec_context.thread_0.statExecutedInstType::No_OpClass       110011      0.01%      0.01% # Class of executed instruction. (Count)
system.timingCpu1.exec_context.thread_0.statExecutedInstType::IntAlu    500876744     23.75%     23.75% # Class of executed instruction. (Count)
system.timingCpu1.exec_context.thread_0.statExecutedInstType::IntMult       117581      0.01%     23.76% # Class of executed instruction. (Count)
system.timingCpu1.exec_context.thread_0.statExecutedInstType::IntDiv       220261      0.01%     23.77% # Class of executed instruction. (Count)
system.timingCpu1.exec_context.thread_0.statExecutedInstType::FloatAdd    205729917      9.75%     33.52% # Class of executed instruction. (Count)
system.timingCpu1.exec_context.thread_0.statExecutedInstType::FloatCmp            0      0.00%     33.52% # Class of executed instruction. (Count)
system.timingCpu1.exec_context.thread_0.statExecutedInstType::FloatCvt          272      0.00%     33.52% # Class of executed instruction. (Count)
system.timingCpu1.exec_context.thread_0.statExecutedInstType::FloatMult            0      0.00%     33.52% # Class of executed instruction. (Count)
system.timingCpu1.exec_context.thread_0.statExecutedInstType::FloatMultAcc            0      0.00%     33.52% # Class of executed instruction. (Count)
system.timingCpu1.exec_context.thread_0.statExecutedInstType::FloatDiv            0      0.00%     33.52% # Class of executed instruction. (Count)
system.timingCpu1.exec_context.thread_0.statExecutedInstType::FloatMisc            0      0.00%     33.52% # Class of executed instruction. (Count)
system.timingCpu1.exec_context.thread_0.statExecutedInstType::FloatSqrt            0      0.00%     33.52% # Class of executed instruction. (Count)
system.timingCpu1.exec_context.thread_0.statExecutedInstType::SimdAdd            0      0.00%     33.52% # Class of executed instruction. (Count)
system.timingCpu1.exec_context.thread_0.statExecutedInstType::SimdAddAcc            0      0.00%     33.52% # Class of executed instruction. (Count)
system.timingCpu1.exec_context.thread_0.statExecutedInstType::SimdAlu            0      0.00%     33.52% # Class of executed instruction. (Count)
system.timingCpu1.exec_context.thread_0.statExecutedInstType::SimdCmp            0      0.00%     33.52% # Class of executed instruction. (Count)
system.timingCpu1.exec_context.thread_0.statExecutedInstType::SimdCvt            0      0.00%     33.52% # Class of executed instruction. (Count)
system.timingCpu1.exec_context.thread_0.statExecutedInstType::SimdMisc            0      0.00%     33.52% # Class of executed instruction. (Count)
system.timingCpu1.exec_context.thread_0.statExecutedInstType::SimdMult            0      0.00%     33.52% # Class of executed instruction. (Count)
system.timingCpu1.exec_context.thread_0.statExecutedInstType::SimdMultAcc            0      0.00%     33.52% # Class of executed instruction. (Count)
system.timingCpu1.exec_context.thread_0.statExecutedInstType::SimdShift            0      0.00%     33.52% # Class of executed instruction. (Count)
system.timingCpu1.exec_context.thread_0.statExecutedInstType::SimdShiftAcc            0      0.00%     33.52% # Class of executed instruction. (Count)
system.timingCpu1.exec_context.thread_0.statExecutedInstType::SimdDiv            0      0.00%     33.52% # Class of executed instruction. (Count)
system.timingCpu1.exec_context.thread_0.statExecutedInstType::SimdSqrt            0      0.00%     33.52% # Class of executed instruction. (Count)
system.timingCpu1.exec_context.thread_0.statExecutedInstType::SimdFloatAdd    473110309     22.43%     55.95% # Class of executed instruction. (Count)
system.timingCpu1.exec_context.thread_0.statExecutedInstType::SimdFloatAlu            0      0.00%     55.95% # Class of executed instruction. (Count)
system.timingCpu1.exec_context.thread_0.statExecutedInstType::SimdFloatCmp            0      0.00%     55.95% # Class of executed instruction. (Count)
system.timingCpu1.exec_context.thread_0.statExecutedInstType::SimdFloatCvt            0      0.00%     55.95% # Class of executed instruction. (Count)
system.timingCpu1.exec_context.thread_0.statExecutedInstType::SimdFloatDiv      2001799      0.09%     56.05% # Class of executed instruction. (Count)
system.timingCpu1.exec_context.thread_0.statExecutedInstType::SimdFloatMisc            0      0.00%     56.05% # Class of executed instruction. (Count)
system.timingCpu1.exec_context.thread_0.statExecutedInstType::SimdFloatMult    326110284     15.46%     71.51% # Class of executed instruction. (Count)
system.timingCpu1.exec_context.thread_0.statExecutedInstType::SimdFloatMultAcc            0      0.00%     71.51% # Class of executed instruction. (Count)
system.timingCpu1.exec_context.thread_0.statExecutedInstType::SimdFloatSqrt      2001799      0.09%     71.60% # Class of executed instruction. (Count)
system.timingCpu1.exec_context.thread_0.statExecutedInstType::SimdReduceAdd            0      0.00%     71.60% # Class of executed instruction. (Count)
system.timingCpu1.exec_context.thread_0.statExecutedInstType::SimdReduceAlu            0      0.00%     71.60% # Class of executed instruction. (Count)
system.timingCpu1.exec_context.thread_0.statExecutedInstType::SimdReduceCmp            0      0.00%     71.60% # Class of executed instruction. (Count)
system.timingCpu1.exec_context.thread_0.statExecutedInstType::SimdFloatReduceAdd            0      0.00%     71.60% # Class of executed instruction. (Count)
system.timingCpu1.exec_context.thread_0.statExecutedInstType::SimdFloatReduceCmp            0      0.00%     71.60% # Class of executed instruction. (Count)
system.timingCpu1.exec_context.thread_0.statExecutedInstType::SimdAes            0      0.00%     71.60% # Class of executed instruction. (Count)
system.timingCpu1.exec_context.thread_0.statExecutedInstType::SimdAesMix            0      0.00%     71.60% # Class of executed instruction. (Count)
system.timingCpu1.exec_context.thread_0.statExecutedInstType::SimdSha1Hash            0      0.00%     71.60% # Class of executed instruction. (Count)
system.timingCpu1.exec_context.thread_0.statExecutedInstType::SimdSha1Hash2            0      0.00%     71.60% # Class of executed instruction. (Count)
system.timingCpu1.exec_context.thread_0.statExecutedInstType::SimdSha256Hash            0      0.00%     71.60% # Class of executed instruction. (Count)
system.timingCpu1.exec_context.thread_0.statExecutedInstType::SimdSha256Hash2            0      0.00%     71.60% # Class of executed instruction. (Count)
system.timingCpu1.exec_context.thread_0.statExecutedInstType::SimdShaSigma2            0      0.00%     71.60% # Class of executed instruction. (Count)
system.timingCpu1.exec_context.thread_0.statExecutedInstType::SimdShaSigma3            0      0.00%     71.60% # Class of executed instruction. (Count)
system.timingCpu1.exec_context.thread_0.statExecutedInstType::SimdPredAlu            0      0.00%     71.60% # Class of executed instruction. (Count)
system.timingCpu1.exec_context.thread_0.statExecutedInstType::MemRead      4991093      0.24%     71.84% # Class of executed instruction. (Count)
system.timingCpu1.exec_context.thread_0.statExecutedInstType::MemWrite      1791605      0.08%     71.92% # Class of executed instruction. (Count)
system.timingCpu1.exec_context.thread_0.statExecutedInstType::FloatMemRead    471393600     22.35%     94.27% # Class of executed instruction. (Count)
system.timingCpu1.exec_context.thread_0.statExecutedInstType::FloatMemWrite    120802663      5.73%    100.00% # Class of executed instruction. (Count)
system.timingCpu1.exec_context.thread_0.statExecutedInstType::IprAccess            0      0.00%    100.00% # Class of executed instruction. (Count)
system.timingCpu1.exec_context.thread_0.statExecutedInstType::InstPrefetch            0      0.00%    100.00% # Class of executed instruction. (Count)
system.timingCpu1.exec_context.thread_0.statExecutedInstType::total   2109257938                       # Class of executed instruction. (Count)
system.timingCpu1.mmu.dtb.rdAccesses        476520583                       # TLB accesses on read requests (Count)
system.timingCpu1.mmu.dtb.wrAccesses        122610919                       # TLB accesses on write requests (Count)
system.timingCpu1.mmu.dtb.rdMisses             136182                       # TLB misses on read requests (Count)
system.timingCpu1.mmu.dtb.wrMisses              16791                       # TLB misses on write requests (Count)
system.timingCpu1.mmu.dtb.walker.power_state.pwrStateResidencyTicks::UNDEFINED 23737467399750                       # Cumulative time (in ticks) in various power states (Tick)
system.timingCpu1.mmu.itb.rdAccesses                0                       # TLB accesses on read requests (Count)
system.timingCpu1.mmu.itb.wrAccesses       2074731172                       # TLB accesses on write requests (Count)
system.timingCpu1.mmu.itb.rdMisses                  0                       # TLB misses on read requests (Count)
system.timingCpu1.mmu.itb.wrMisses               6411                       # TLB misses on write requests (Count)
system.timingCpu1.mmu.itb.walker.power_state.pwrStateResidencyTicks::UNDEFINED 23737467399750                       # Cumulative time (in ticks) in various power states (Tick)
system.timingCpu1.power_state.numTransitions           10                       # Number of power state transitions (Count)
system.timingCpu1.power_state.ticksClkGated::samples            5                       # Distribution of time spent in the clock gated state (Tick)
system.timingCpu1.power_state.ticksClkGated::mean    667716850                       # Distribution of time spent in the clock gated state (Tick)
system.timingCpu1.power_state.ticksClkGated::stdev 459815095.665523                       # Distribution of time spent in the clock gated state (Tick)
system.timingCpu1.power_state.ticksClkGated::1000-5e+10            5    100.00%    100.00% # Distribution of time spent in the clock gated state (Tick)
system.timingCpu1.power_state.ticksClkGated::min_value     21024250                       # Distribution of time spent in the clock gated state (Tick)
system.timingCpu1.power_state.ticksClkGated::max_value    998253750                       # Distribution of time spent in the clock gated state (Tick)
system.timingCpu1.power_state.ticksClkGated::total            5                       # Distribution of time spent in the clock gated state (Tick)
system.timingCpu1.power_state.pwrStateResidencyTicks::ON 161466149000                       # Cumulative time (in ticks) in various power states (Tick)
system.timingCpu1.power_state.pwrStateResidencyTicks::CLK_GATED   3338584250                       # Cumulative time (in ticks) in various power states (Tick)
system.timingCpu1.power_state.pwrStateResidencyTicks::OFF 23572662666500                       # Cumulative time (in ticks) in various power states (Tick)
system.timingCpu1.thread_0.numInsts                 0                       # Number of Instructions committed (Count)
system.timingCpu1.thread_0.numOps                   0                       # Number of Ops committed (Count)
system.timingCpu1.thread_0.numMemRefs               0                       # Number of Memory References (Count)
system.workload.inst.arm                            0                       # number of arm instructions executed (Count)
system.workload.inst.quiesce                        0                       # number of quiesce instructions executed (Count)

---------- End Simulation Statistics   ----------
