
---------- Begin Simulation Statistics ----------
simSeconds                                   0.010000                       # Number of seconds simulated (Second)
simTicks                                  10000000000                       # Number of ticks simulated (Tick)
finalTick                                 10000000000                       # Number of ticks from beginning of simulation (restored from checkpoints and never reset) (Tick)
simFreq                                  1000000000000                       # The number of ticks per simulated second ((Tick/Second))
hostSeconds                                     59.77                       # Real time elapsed on the host (Second)
hostTickRate                                167314261                       # The number of ticks simulated per host second (ticks/s) ((Tick/Second))
hostMemory                                    4202680                       # Number of bytes of host memory used (Byte)
system.clk_domain.clock                           250                       # Clock period in ticks (Tick)
system.clk_domain.voltage_domain.voltage            1                       # Voltage in Volts (Volt)
system.far_mem_ctrl.avgPriority_writebacks::samples    940015.00                       # Average QoS priority value for accepted requests (Count)
system.far_mem_ctrl.priorityMinLatency   0.000000017492                       # per QoS priority minimum request to response latency (Second)
system.far_mem_ctrl.priorityMaxLatency   0.000130925652                       # per QoS priority maximum request to response latency (Second)
system.far_mem_ctrl.numReadWriteTurnArounds            0                       # Number of turnarounds from READ to WRITE (Count)
system.far_mem_ctrl.numWriteReadTurnArounds            0                       # Number of turnarounds from WRITE to READ (Count)
system.far_mem_ctrl.numStayReadState          1792972                       # Number of times bus staying in READ state (Count)
system.far_mem_ctrl.numStayWriteState               0                       # Number of times bus staying in WRITE state (Count)
system.far_mem_ctrl.readReqs                        0                       # Number of read requests accepted (Count)
system.far_mem_ctrl.writeReqs                 1781307                       # Number of write requests accepted (Count)
system.far_mem_ctrl.readBursts                      0                       # Number of controller read bursts, including those serviced by the write queue (Count)
system.far_mem_ctrl.writeBursts               1781307                       # Number of controller write bursts, including those merged in the write queue (Count)
system.far_mem_ctrl.servicedByWrQ                   0                       # Number of controller read bursts serviced by the write queue (Count)
system.far_mem_ctrl.mergedWrBursts             841292                       # Number of controller write bursts merged with an existing one (Count)
system.far_mem_ctrl.avgRdQLen                    0.00                       # Average read queue length when enqueuing ((Count/Tick))
system.far_mem_ctrl.avgWrQLen                   59.81                       # Average write queue length when enqueuing ((Count/Tick))
system.far_mem_ctrl.numRdRetry                      0                       # Number of times read queue was full causing retry (Count)
system.far_mem_ctrl.numWrRetry                  28810                       # Number of times write queue was full causing retry (Count)
system.far_mem_ctrl.readPktSize::0                  0                       # Read request sizes (log2) (Count)
system.far_mem_ctrl.readPktSize::1                  0                       # Read request sizes (log2) (Count)
system.far_mem_ctrl.readPktSize::2                  0                       # Read request sizes (log2) (Count)
system.far_mem_ctrl.readPktSize::3                  0                       # Read request sizes (log2) (Count)
system.far_mem_ctrl.readPktSize::4                  0                       # Read request sizes (log2) (Count)
system.far_mem_ctrl.readPktSize::5                  0                       # Read request sizes (log2) (Count)
system.far_mem_ctrl.readPktSize::6                  0                       # Read request sizes (log2) (Count)
system.far_mem_ctrl.writePktSize::0                 0                       # Write request sizes (log2) (Count)
system.far_mem_ctrl.writePktSize::1                 0                       # Write request sizes (log2) (Count)
system.far_mem_ctrl.writePktSize::2                 0                       # Write request sizes (log2) (Count)
system.far_mem_ctrl.writePktSize::3                 0                       # Write request sizes (log2) (Count)
system.far_mem_ctrl.writePktSize::4                 0                       # Write request sizes (log2) (Count)
system.far_mem_ctrl.writePktSize::5                 0                       # Write request sizes (log2) (Count)
system.far_mem_ctrl.writePktSize::6           1781307                       # Write request sizes (log2) (Count)
system.far_mem_ctrl.rdQLenPdf::0                    0                       # What read queue length does an incoming req see (Count)
system.far_mem_ctrl.rdQLenPdf::1                    0                       # What read queue length does an incoming req see (Count)
system.far_mem_ctrl.rdQLenPdf::2                    0                       # What read queue length does an incoming req see (Count)
system.far_mem_ctrl.rdQLenPdf::3                    0                       # What read queue length does an incoming req see (Count)
system.far_mem_ctrl.rdQLenPdf::4                    0                       # What read queue length does an incoming req see (Count)
system.far_mem_ctrl.rdQLenPdf::5                    0                       # What read queue length does an incoming req see (Count)
system.far_mem_ctrl.rdQLenPdf::6                    0                       # What read queue length does an incoming req see (Count)
system.far_mem_ctrl.rdQLenPdf::7                    0                       # What read queue length does an incoming req see (Count)
system.far_mem_ctrl.rdQLenPdf::8                    0                       # What read queue length does an incoming req see (Count)
system.far_mem_ctrl.rdQLenPdf::9                    0                       # What read queue length does an incoming req see (Count)
system.far_mem_ctrl.rdQLenPdf::10                   0                       # What read queue length does an incoming req see (Count)
system.far_mem_ctrl.rdQLenPdf::11                   0                       # What read queue length does an incoming req see (Count)
system.far_mem_ctrl.rdQLenPdf::12                   0                       # What read queue length does an incoming req see (Count)
system.far_mem_ctrl.rdQLenPdf::13                   0                       # What read queue length does an incoming req see (Count)
system.far_mem_ctrl.rdQLenPdf::14                   0                       # What read queue length does an incoming req see (Count)
system.far_mem_ctrl.rdQLenPdf::15                   0                       # What read queue length does an incoming req see (Count)
system.far_mem_ctrl.rdQLenPdf::16                   0                       # What read queue length does an incoming req see (Count)
system.far_mem_ctrl.rdQLenPdf::17                   0                       # What read queue length does an incoming req see (Count)
system.far_mem_ctrl.rdQLenPdf::18                   0                       # What read queue length does an incoming req see (Count)
system.far_mem_ctrl.rdQLenPdf::19                   0                       # What read queue length does an incoming req see (Count)
system.far_mem_ctrl.rdQLenPdf::20                   0                       # What read queue length does an incoming req see (Count)
system.far_mem_ctrl.rdQLenPdf::21                   0                       # What read queue length does an incoming req see (Count)
system.far_mem_ctrl.rdQLenPdf::22                   0                       # What read queue length does an incoming req see (Count)
system.far_mem_ctrl.rdQLenPdf::23                   0                       # What read queue length does an incoming req see (Count)
system.far_mem_ctrl.rdQLenPdf::24                   0                       # What read queue length does an incoming req see (Count)
system.far_mem_ctrl.rdQLenPdf::25                   0                       # What read queue length does an incoming req see (Count)
system.far_mem_ctrl.rdQLenPdf::26                   0                       # What read queue length does an incoming req see (Count)
system.far_mem_ctrl.rdQLenPdf::27                   0                       # What read queue length does an incoming req see (Count)
system.far_mem_ctrl.rdQLenPdf::28                   0                       # What read queue length does an incoming req see (Count)
system.far_mem_ctrl.rdQLenPdf::29                   0                       # What read queue length does an incoming req see (Count)
system.far_mem_ctrl.rdQLenPdf::30                   0                       # What read queue length does an incoming req see (Count)
system.far_mem_ctrl.rdQLenPdf::31                   0                       # What read queue length does an incoming req see (Count)
system.far_mem_ctrl.rdQLenPdf::32                   0                       # What read queue length does an incoming req see (Count)
system.far_mem_ctrl.rdQLenPdf::33                   0                       # What read queue length does an incoming req see (Count)
system.far_mem_ctrl.rdQLenPdf::34                   0                       # What read queue length does an incoming req see (Count)
system.far_mem_ctrl.rdQLenPdf::35                   0                       # What read queue length does an incoming req see (Count)
system.far_mem_ctrl.rdQLenPdf::36                   0                       # What read queue length does an incoming req see (Count)
system.far_mem_ctrl.rdQLenPdf::37                   0                       # What read queue length does an incoming req see (Count)
system.far_mem_ctrl.rdQLenPdf::38                   0                       # What read queue length does an incoming req see (Count)
system.far_mem_ctrl.rdQLenPdf::39                   0                       # What read queue length does an incoming req see (Count)
system.far_mem_ctrl.rdQLenPdf::40                   0                       # What read queue length does an incoming req see (Count)
system.far_mem_ctrl.rdQLenPdf::41                   0                       # What read queue length does an incoming req see (Count)
system.far_mem_ctrl.rdQLenPdf::42                   0                       # What read queue length does an incoming req see (Count)
system.far_mem_ctrl.rdQLenPdf::43                   0                       # What read queue length does an incoming req see (Count)
system.far_mem_ctrl.rdQLenPdf::44                   0                       # What read queue length does an incoming req see (Count)
system.far_mem_ctrl.rdQLenPdf::45                   0                       # What read queue length does an incoming req see (Count)
system.far_mem_ctrl.rdQLenPdf::46                   0                       # What read queue length does an incoming req see (Count)
system.far_mem_ctrl.rdQLenPdf::47                   0                       # What read queue length does an incoming req see (Count)
system.far_mem_ctrl.rdQLenPdf::48                   0                       # What read queue length does an incoming req see (Count)
system.far_mem_ctrl.rdQLenPdf::49                   0                       # What read queue length does an incoming req see (Count)
system.far_mem_ctrl.rdQLenPdf::50                   0                       # What read queue length does an incoming req see (Count)
system.far_mem_ctrl.rdQLenPdf::51                   0                       # What read queue length does an incoming req see (Count)
system.far_mem_ctrl.rdQLenPdf::52                   0                       # What read queue length does an incoming req see (Count)
system.far_mem_ctrl.rdQLenPdf::53                   0                       # What read queue length does an incoming req see (Count)
system.far_mem_ctrl.rdQLenPdf::54                   0                       # What read queue length does an incoming req see (Count)
system.far_mem_ctrl.rdQLenPdf::55                   0                       # What read queue length does an incoming req see (Count)
system.far_mem_ctrl.rdQLenPdf::56                   0                       # What read queue length does an incoming req see (Count)
system.far_mem_ctrl.rdQLenPdf::57                   0                       # What read queue length does an incoming req see (Count)
system.far_mem_ctrl.rdQLenPdf::58                   0                       # What read queue length does an incoming req see (Count)
system.far_mem_ctrl.rdQLenPdf::59                   0                       # What read queue length does an incoming req see (Count)
system.far_mem_ctrl.rdQLenPdf::60                   0                       # What read queue length does an incoming req see (Count)
system.far_mem_ctrl.rdQLenPdf::61                   0                       # What read queue length does an incoming req see (Count)
system.far_mem_ctrl.rdQLenPdf::62                   0                       # What read queue length does an incoming req see (Count)
system.far_mem_ctrl.rdQLenPdf::63                   0                       # What read queue length does an incoming req see (Count)
system.far_mem_ctrl.wrQLenPdf::0                    1                       # What write queue length does an incoming req see (Count)
system.far_mem_ctrl.wrQLenPdf::1                    1                       # What write queue length does an incoming req see (Count)
system.far_mem_ctrl.wrQLenPdf::2                    1                       # What write queue length does an incoming req see (Count)
system.far_mem_ctrl.wrQLenPdf::3                    1                       # What write queue length does an incoming req see (Count)
system.far_mem_ctrl.wrQLenPdf::4                    1                       # What write queue length does an incoming req see (Count)
system.far_mem_ctrl.wrQLenPdf::5                    1                       # What write queue length does an incoming req see (Count)
system.far_mem_ctrl.wrQLenPdf::6                    1                       # What write queue length does an incoming req see (Count)
system.far_mem_ctrl.wrQLenPdf::7                    1                       # What write queue length does an incoming req see (Count)
system.far_mem_ctrl.wrQLenPdf::8                    1                       # What write queue length does an incoming req see (Count)
system.far_mem_ctrl.wrQLenPdf::9                    1                       # What write queue length does an incoming req see (Count)
system.far_mem_ctrl.wrQLenPdf::10                   1                       # What write queue length does an incoming req see (Count)
system.far_mem_ctrl.wrQLenPdf::11                   1                       # What write queue length does an incoming req see (Count)
system.far_mem_ctrl.wrQLenPdf::12                   1                       # What write queue length does an incoming req see (Count)
system.far_mem_ctrl.wrQLenPdf::13                   1                       # What write queue length does an incoming req see (Count)
system.far_mem_ctrl.wrQLenPdf::14                   1                       # What write queue length does an incoming req see (Count)
system.far_mem_ctrl.wrQLenPdf::15                   1                       # What write queue length does an incoming req see (Count)
system.far_mem_ctrl.wrQLenPdf::16                   1                       # What write queue length does an incoming req see (Count)
system.far_mem_ctrl.wrQLenPdf::17                   1                       # What write queue length does an incoming req see (Count)
system.far_mem_ctrl.wrQLenPdf::18                   1                       # What write queue length does an incoming req see (Count)
system.far_mem_ctrl.wrQLenPdf::19                   1                       # What write queue length does an incoming req see (Count)
system.far_mem_ctrl.wrQLenPdf::20                   1                       # What write queue length does an incoming req see (Count)
system.far_mem_ctrl.wrQLenPdf::21                   1                       # What write queue length does an incoming req see (Count)
system.far_mem_ctrl.wrQLenPdf::22                   1                       # What write queue length does an incoming req see (Count)
system.far_mem_ctrl.wrQLenPdf::23                   1                       # What write queue length does an incoming req see (Count)
system.far_mem_ctrl.wrQLenPdf::24                   1                       # What write queue length does an incoming req see (Count)
system.far_mem_ctrl.wrQLenPdf::25                   1                       # What write queue length does an incoming req see (Count)
system.far_mem_ctrl.wrQLenPdf::26                   1                       # What write queue length does an incoming req see (Count)
system.far_mem_ctrl.wrQLenPdf::27                   1                       # What write queue length does an incoming req see (Count)
system.far_mem_ctrl.wrQLenPdf::28                   1                       # What write queue length does an incoming req see (Count)
system.far_mem_ctrl.wrQLenPdf::29                   1                       # What write queue length does an incoming req see (Count)
system.far_mem_ctrl.wrQLenPdf::30                   1                       # What write queue length does an incoming req see (Count)
system.far_mem_ctrl.wrQLenPdf::31                   1                       # What write queue length does an incoming req see (Count)
system.far_mem_ctrl.wrQLenPdf::32                   1                       # What write queue length does an incoming req see (Count)
system.far_mem_ctrl.wrQLenPdf::33                   1                       # What write queue length does an incoming req see (Count)
system.far_mem_ctrl.wrQLenPdf::34                   1                       # What write queue length does an incoming req see (Count)
system.far_mem_ctrl.wrQLenPdf::35                   1                       # What write queue length does an incoming req see (Count)
system.far_mem_ctrl.wrQLenPdf::36                   1                       # What write queue length does an incoming req see (Count)
system.far_mem_ctrl.wrQLenPdf::37                   1                       # What write queue length does an incoming req see (Count)
system.far_mem_ctrl.wrQLenPdf::38                   1                       # What write queue length does an incoming req see (Count)
system.far_mem_ctrl.wrQLenPdf::39                   1                       # What write queue length does an incoming req see (Count)
system.far_mem_ctrl.wrQLenPdf::40                   1                       # What write queue length does an incoming req see (Count)
system.far_mem_ctrl.wrQLenPdf::41                   1                       # What write queue length does an incoming req see (Count)
system.far_mem_ctrl.wrQLenPdf::42                   1                       # What write queue length does an incoming req see (Count)
system.far_mem_ctrl.wrQLenPdf::43                   1                       # What write queue length does an incoming req see (Count)
system.far_mem_ctrl.wrQLenPdf::44                   1                       # What write queue length does an incoming req see (Count)
system.far_mem_ctrl.wrQLenPdf::45                   1                       # What write queue length does an incoming req see (Count)
system.far_mem_ctrl.wrQLenPdf::46                   1                       # What write queue length does an incoming req see (Count)
system.far_mem_ctrl.wrQLenPdf::47               17506                       # What write queue length does an incoming req see (Count)
system.far_mem_ctrl.wrQLenPdf::48               29133                       # What write queue length does an incoming req see (Count)
system.far_mem_ctrl.wrQLenPdf::49               33260                       # What write queue length does an incoming req see (Count)
system.far_mem_ctrl.wrQLenPdf::50               35725                       # What write queue length does an incoming req see (Count)
system.far_mem_ctrl.wrQLenPdf::51               37348                       # What write queue length does an incoming req see (Count)
system.far_mem_ctrl.wrQLenPdf::52               38938                       # What write queue length does an incoming req see (Count)
system.far_mem_ctrl.wrQLenPdf::53               40796                       # What write queue length does an incoming req see (Count)
system.far_mem_ctrl.wrQLenPdf::54               41972                       # What write queue length does an incoming req see (Count)
system.far_mem_ctrl.wrQLenPdf::55               43748                       # What write queue length does an incoming req see (Count)
system.far_mem_ctrl.wrQLenPdf::56               45950                       # What write queue length does an incoming req see (Count)
system.far_mem_ctrl.wrQLenPdf::57               48596                       # What write queue length does an incoming req see (Count)
system.far_mem_ctrl.wrQLenPdf::58               53118                       # What write queue length does an incoming req see (Count)
system.far_mem_ctrl.wrQLenPdf::59               49719                       # What write queue length does an incoming req see (Count)
system.far_mem_ctrl.wrQLenPdf::60               45616                       # What write queue length does an incoming req see (Count)
system.far_mem_ctrl.wrQLenPdf::61               37558                       # What write queue length does an incoming req see (Count)
system.far_mem_ctrl.wrQLenPdf::62               34693                       # What write queue length does an incoming req see (Count)
system.far_mem_ctrl.wrQLenPdf::63               32682                       # What write queue length does an incoming req see (Count)
system.far_mem_ctrl.wrQLenPdf::64               31362                       # What write queue length does an incoming req see (Count)
system.far_mem_ctrl.wrQLenPdf::65               13199                       # What write queue length does an incoming req see (Count)
system.far_mem_ctrl.wrQLenPdf::66               12181                       # What write queue length does an incoming req see (Count)
system.far_mem_ctrl.wrQLenPdf::67               11546                       # What write queue length does an incoming req see (Count)
system.far_mem_ctrl.wrQLenPdf::68               10632                       # What write queue length does an incoming req see (Count)
system.far_mem_ctrl.wrQLenPdf::69               10221                       # What write queue length does an incoming req see (Count)
system.far_mem_ctrl.wrQLenPdf::70                9533                       # What write queue length does an incoming req see (Count)
system.far_mem_ctrl.wrQLenPdf::71                8966                       # What write queue length does an incoming req see (Count)
system.far_mem_ctrl.wrQLenPdf::72                8718                       # What write queue length does an incoming req see (Count)
system.far_mem_ctrl.wrQLenPdf::73                8239                       # What write queue length does an incoming req see (Count)
system.far_mem_ctrl.wrQLenPdf::74                7901                       # What write queue length does an incoming req see (Count)
system.far_mem_ctrl.wrQLenPdf::75                7667                       # What write queue length does an incoming req see (Count)
system.far_mem_ctrl.wrQLenPdf::76                7127                       # What write queue length does an incoming req see (Count)
system.far_mem_ctrl.wrQLenPdf::77                6797                       # What write queue length does an incoming req see (Count)
system.far_mem_ctrl.wrQLenPdf::78                6535                       # What write queue length does an incoming req see (Count)
system.far_mem_ctrl.wrQLenPdf::79                6105                       # What write queue length does an incoming req see (Count)
system.far_mem_ctrl.wrQLenPdf::80                5773                       # What write queue length does an incoming req see (Count)
system.far_mem_ctrl.wrQLenPdf::81                5518                       # What write queue length does an incoming req see (Count)
system.far_mem_ctrl.wrQLenPdf::82                5361                       # What write queue length does an incoming req see (Count)
system.far_mem_ctrl.wrQLenPdf::83                4953                       # What write queue length does an incoming req see (Count)
system.far_mem_ctrl.wrQLenPdf::84                4661                       # What write queue length does an incoming req see (Count)
system.far_mem_ctrl.wrQLenPdf::85                4440                       # What write queue length does an incoming req see (Count)
system.far_mem_ctrl.wrQLenPdf::86                4279                       # What write queue length does an incoming req see (Count)
system.far_mem_ctrl.wrQLenPdf::87                4078                       # What write queue length does an incoming req see (Count)
system.far_mem_ctrl.wrQLenPdf::88                3831                       # What write queue length does an incoming req see (Count)
system.far_mem_ctrl.wrQLenPdf::89                3427                       # What write queue length does an incoming req see (Count)
system.far_mem_ctrl.wrQLenPdf::90                3196                       # What write queue length does an incoming req see (Count)
system.far_mem_ctrl.wrQLenPdf::91                3198                       # What write queue length does an incoming req see (Count)
system.far_mem_ctrl.wrQLenPdf::92                3031                       # What write queue length does an incoming req see (Count)
system.far_mem_ctrl.wrQLenPdf::93                2807                       # What write queue length does an incoming req see (Count)
system.far_mem_ctrl.wrQLenPdf::94                2650                       # What write queue length does an incoming req see (Count)
system.far_mem_ctrl.wrQLenPdf::95                2434                       # What write queue length does an incoming req see (Count)
system.far_mem_ctrl.wrQLenPdf::96                2259                       # What write queue length does an incoming req see (Count)
system.far_mem_ctrl.wrQLenPdf::97                2164                       # What write queue length does an incoming req see (Count)
system.far_mem_ctrl.wrQLenPdf::98                1973                       # What write queue length does an incoming req see (Count)
system.far_mem_ctrl.wrQLenPdf::99                1771                       # What write queue length does an incoming req see (Count)
system.far_mem_ctrl.wrQLenPdf::100               1623                       # What write queue length does an incoming req see (Count)
system.far_mem_ctrl.wrQLenPdf::101               1413                       # What write queue length does an incoming req see (Count)
system.far_mem_ctrl.wrQLenPdf::102               1323                       # What write queue length does an incoming req see (Count)
system.far_mem_ctrl.wrQLenPdf::103               1272                       # What write queue length does an incoming req see (Count)
system.far_mem_ctrl.wrQLenPdf::104               1168                       # What write queue length does an incoming req see (Count)
system.far_mem_ctrl.wrQLenPdf::105               1022                       # What write queue length does an incoming req see (Count)
system.far_mem_ctrl.wrQLenPdf::106                969                       # What write queue length does an incoming req see (Count)
system.far_mem_ctrl.wrQLenPdf::107                879                       # What write queue length does an incoming req see (Count)
system.far_mem_ctrl.wrQLenPdf::108                888                       # What write queue length does an incoming req see (Count)
system.far_mem_ctrl.wrQLenPdf::109                847                       # What write queue length does an incoming req see (Count)
system.far_mem_ctrl.wrQLenPdf::110                703                       # What write queue length does an incoming req see (Count)
system.far_mem_ctrl.wrQLenPdf::111                677                       # What write queue length does an incoming req see (Count)
system.far_mem_ctrl.wrQLenPdf::112                648                       # What write queue length does an incoming req see (Count)
system.far_mem_ctrl.wrQLenPdf::113                579                       # What write queue length does an incoming req see (Count)
system.far_mem_ctrl.wrQLenPdf::114                529                       # What write queue length does an incoming req see (Count)
system.far_mem_ctrl.wrQLenPdf::115                576                       # What write queue length does an incoming req see (Count)
system.far_mem_ctrl.wrQLenPdf::116                527                       # What write queue length does an incoming req see (Count)
system.far_mem_ctrl.wrQLenPdf::117                500                       # What write queue length does an incoming req see (Count)
system.far_mem_ctrl.wrQLenPdf::118                526                       # What write queue length does an incoming req see (Count)
system.far_mem_ctrl.wrQLenPdf::119                437                       # What write queue length does an incoming req see (Count)
system.far_mem_ctrl.wrQLenPdf::120                402                       # What write queue length does an incoming req see (Count)
system.far_mem_ctrl.wrQLenPdf::121                400                       # What write queue length does an incoming req see (Count)
system.far_mem_ctrl.wrQLenPdf::122                411                       # What write queue length does an incoming req see (Count)
system.far_mem_ctrl.wrQLenPdf::123                502                       # What write queue length does an incoming req see (Count)
system.far_mem_ctrl.wrQLenPdf::124                702                       # What write queue length does an incoming req see (Count)
system.far_mem_ctrl.wrQLenPdf::125                742                       # What write queue length does an incoming req see (Count)
system.far_mem_ctrl.wrQLenPdf::126                803                       # What write queue length does an incoming req see (Count)
system.far_mem_ctrl.wrQLenPdf::127              14009                       # What write queue length does an incoming req see (Count)
system.far_mem_ctrl.rdPerTurnAround::samples        17505                       # Reads before turning the bus around for writes (Count)
system.far_mem_ctrl.rdPerTurnAround::0          17505    100.00%    100.00% # Reads before turning the bus around for writes (Count)
system.far_mem_ctrl.rdPerTurnAround::total        17505                       # Reads before turning the bus around for writes (Count)
system.far_mem_ctrl.wrPerTurnAround::samples        17505                       # Writes before turning the bus around for reads (Count)
system.far_mem_ctrl.wrPerTurnAround::0          17505    100.00%    100.00% # Writes before turning the bus around for reads (Count)
system.far_mem_ctrl.wrPerTurnAround::total        17505                       # Writes before turning the bus around for reads (Count)
system.far_mem_ctrl.bytesReadWrQ                    0                       # Total number of bytes read from write queue (Byte)
system.far_mem_ctrl.bytesReadSys                    0                       # Total read bytes from the system interface side (Byte)
system.far_mem_ctrl.bytesWrittenSys         114003648                       # Total written bytes from the system interface side (Byte)
system.far_mem_ctrl.avgRdBWSys             0.00000000                       # Average system read bandwidth in Byte/s ((Byte/Second))
system.far_mem_ctrl.avgWrBWSys           11400364800.00000000                       # Average system write bandwidth in Byte/s ((Byte/Second))
system.far_mem_ctrl.totGap                 9999922000                       # Total gap between requests (Tick)
system.far_mem_ctrl.avgGap                    5613.81                       # Average gap between requests ((Tick/Count))
system.far_mem_ctrl.requestorWriteBytes::writebacks     60157888                       # Per-requestor bytes write to memory (Byte)
system.far_mem_ctrl.requestorWriteRate::writebacks 6015788800.000000000000                       # Per-requestor bytes write to memory rate ((Byte/Second))
system.far_mem_ctrl.requestorWriteAccesses::writebacks      1781307                       # Per-requestor write serviced memory accesses (Count)
system.far_mem_ctrl.requestorWriteTotalLat::writebacks 615429589817                       # Per-requestor write total memory access latency (Tick)
system.far_mem_ctrl.requestorWriteAvgLat::writebacks    345493.28                       # Per-requestor write average memory access latency ((Tick/Count))
system.far_mem_ctrl.dram.bytesWritten::writebacks    114003648                       # Number of bytes written to this memory (Byte)
system.far_mem_ctrl.dram.bytesWritten::total    114003648                       # Number of bytes written to this memory (Byte)
system.far_mem_ctrl.dram.numWrites::writebacks      1781307                       # Number of write requests responded to by this memory (Count)
system.far_mem_ctrl.dram.numWrites::total      1781307                       # Number of write requests responded to by this memory (Count)
system.far_mem_ctrl.dram.bwWrite::writebacks  11400364800                       # Write bandwidth from this memory ((Byte/Second))
system.far_mem_ctrl.dram.bwWrite::total   11400364800                       # Write bandwidth from this memory ((Byte/Second))
system.far_mem_ctrl.dram.bwTotal::writebacks  11400364800                       # Total bandwidth to/from this memory ((Byte/Second))
system.far_mem_ctrl.dram.bwTotal::total   11400364800                       # Total bandwidth to/from this memory ((Byte/Second))
system.far_mem_ctrl.dram.readBursts                 0                       # Number of DRAM read bursts (Count)
system.far_mem_ctrl.dram.writeBursts           939967                       # Number of DRAM write bursts (Count)
system.far_mem_ctrl.dram.perBankRdBursts::0            0                       # Per bank write bursts (Count)
system.far_mem_ctrl.dram.perBankRdBursts::1            0                       # Per bank write bursts (Count)
system.far_mem_ctrl.dram.perBankRdBursts::2            0                       # Per bank write bursts (Count)
system.far_mem_ctrl.dram.perBankRdBursts::3            0                       # Per bank write bursts (Count)
system.far_mem_ctrl.dram.perBankRdBursts::4            0                       # Per bank write bursts (Count)
system.far_mem_ctrl.dram.perBankRdBursts::5            0                       # Per bank write bursts (Count)
system.far_mem_ctrl.dram.perBankRdBursts::6            0                       # Per bank write bursts (Count)
system.far_mem_ctrl.dram.perBankRdBursts::7            0                       # Per bank write bursts (Count)
system.far_mem_ctrl.dram.perBankRdBursts::8            0                       # Per bank write bursts (Count)
system.far_mem_ctrl.dram.perBankRdBursts::9            0                       # Per bank write bursts (Count)
system.far_mem_ctrl.dram.perBankRdBursts::10            0                       # Per bank write bursts (Count)
system.far_mem_ctrl.dram.perBankRdBursts::11            0                       # Per bank write bursts (Count)
system.far_mem_ctrl.dram.perBankRdBursts::12            0                       # Per bank write bursts (Count)
system.far_mem_ctrl.dram.perBankRdBursts::13            0                       # Per bank write bursts (Count)
system.far_mem_ctrl.dram.perBankRdBursts::14            0                       # Per bank write bursts (Count)
system.far_mem_ctrl.dram.perBankRdBursts::15            0                       # Per bank write bursts (Count)
system.far_mem_ctrl.dram.perBankRdBursts::16            0                       # Per bank write bursts (Count)
system.far_mem_ctrl.dram.perBankRdBursts::17            0                       # Per bank write bursts (Count)
system.far_mem_ctrl.dram.perBankRdBursts::18            0                       # Per bank write bursts (Count)
system.far_mem_ctrl.dram.perBankRdBursts::19            0                       # Per bank write bursts (Count)
system.far_mem_ctrl.dram.perBankRdBursts::20            0                       # Per bank write bursts (Count)
system.far_mem_ctrl.dram.perBankRdBursts::21            0                       # Per bank write bursts (Count)
system.far_mem_ctrl.dram.perBankRdBursts::22            0                       # Per bank write bursts (Count)
system.far_mem_ctrl.dram.perBankRdBursts::23            0                       # Per bank write bursts (Count)
system.far_mem_ctrl.dram.perBankRdBursts::24            0                       # Per bank write bursts (Count)
system.far_mem_ctrl.dram.perBankRdBursts::25            0                       # Per bank write bursts (Count)
system.far_mem_ctrl.dram.perBankRdBursts::26            0                       # Per bank write bursts (Count)
system.far_mem_ctrl.dram.perBankRdBursts::27            0                       # Per bank write bursts (Count)
system.far_mem_ctrl.dram.perBankRdBursts::28            0                       # Per bank write bursts (Count)
system.far_mem_ctrl.dram.perBankRdBursts::29            0                       # Per bank write bursts (Count)
system.far_mem_ctrl.dram.perBankRdBursts::30            0                       # Per bank write bursts (Count)
system.far_mem_ctrl.dram.perBankRdBursts::31            0                       # Per bank write bursts (Count)
system.far_mem_ctrl.dram.perBankWrBursts::0        44144                       # Per bank write bursts (Count)
system.far_mem_ctrl.dram.perBankWrBursts::1        28796                       # Per bank write bursts (Count)
system.far_mem_ctrl.dram.perBankWrBursts::2        29115                       # Per bank write bursts (Count)
system.far_mem_ctrl.dram.perBankWrBursts::3        29102                       # Per bank write bursts (Count)
system.far_mem_ctrl.dram.perBankWrBursts::4        29156                       # Per bank write bursts (Count)
system.far_mem_ctrl.dram.perBankWrBursts::5        29062                       # Per bank write bursts (Count)
system.far_mem_ctrl.dram.perBankWrBursts::6        28690                       # Per bank write bursts (Count)
system.far_mem_ctrl.dram.perBankWrBursts::7        28881                       # Per bank write bursts (Count)
system.far_mem_ctrl.dram.perBankWrBursts::8        28569                       # Per bank write bursts (Count)
system.far_mem_ctrl.dram.perBankWrBursts::9        28952                       # Per bank write bursts (Count)
system.far_mem_ctrl.dram.perBankWrBursts::10        28863                       # Per bank write bursts (Count)
system.far_mem_ctrl.dram.perBankWrBursts::11        28786                       # Per bank write bursts (Count)
system.far_mem_ctrl.dram.perBankWrBursts::12        29170                       # Per bank write bursts (Count)
system.far_mem_ctrl.dram.perBankWrBursts::13        28845                       # Per bank write bursts (Count)
system.far_mem_ctrl.dram.perBankWrBursts::14        28873                       # Per bank write bursts (Count)
system.far_mem_ctrl.dram.perBankWrBursts::15        29061                       # Per bank write bursts (Count)
system.far_mem_ctrl.dram.perBankWrBursts::16        28940                       # Per bank write bursts (Count)
system.far_mem_ctrl.dram.perBankWrBursts::17        29032                       # Per bank write bursts (Count)
system.far_mem_ctrl.dram.perBankWrBursts::18        28884                       # Per bank write bursts (Count)
system.far_mem_ctrl.dram.perBankWrBursts::19        28787                       # Per bank write bursts (Count)
system.far_mem_ctrl.dram.perBankWrBursts::20        28833                       # Per bank write bursts (Count)
system.far_mem_ctrl.dram.perBankWrBursts::21        28757                       # Per bank write bursts (Count)
system.far_mem_ctrl.dram.perBankWrBursts::22        29040                       # Per bank write bursts (Count)
system.far_mem_ctrl.dram.perBankWrBursts::23        28911                       # Per bank write bursts (Count)
system.far_mem_ctrl.dram.perBankWrBursts::24        28650                       # Per bank write bursts (Count)
system.far_mem_ctrl.dram.perBankWrBursts::25        28560                       # Per bank write bursts (Count)
system.far_mem_ctrl.dram.perBankWrBursts::26        28834                       # Per bank write bursts (Count)
system.far_mem_ctrl.dram.perBankWrBursts::27        28900                       # Per bank write bursts (Count)
system.far_mem_ctrl.dram.perBankWrBursts::28        29183                       # Per bank write bursts (Count)
system.far_mem_ctrl.dram.perBankWrBursts::29        28683                       # Per bank write bursts (Count)
system.far_mem_ctrl.dram.perBankWrBursts::30        28629                       # Per bank write bursts (Count)
system.far_mem_ctrl.dram.perBankWrBursts::31        29279                       # Per bank write bursts (Count)
system.far_mem_ctrl.dram.totQLat                    0                       # Total ticks spent queuing (Tick)
system.far_mem_ctrl.dram.totBusLat                  0                       # Total ticks spent in databus transfers (Tick)
system.far_mem_ctrl.dram.totMemAccLat               0                       # Total ticks spent from burst creation until serviced by the DRAM (Tick)
system.far_mem_ctrl.dram.avgQLat                  nan                       # Average queueing delay per DRAM burst ((Tick/Count))
system.far_mem_ctrl.dram.avgBusLat                nan                       # Average bus latency per DRAM burst ((Tick/Count))
system.far_mem_ctrl.dram.avgMemAccLat             nan                       # Average memory access latency per DRAM burst ((Tick/Count))
system.far_mem_ctrl.dram.readRowHits                0                       # Number of row buffer hits during reads (Count)
system.far_mem_ctrl.dram.writeRowHits            6371                       # Number of row buffer hits during writes (Count)
system.far_mem_ctrl.dram.readRowHitRate           nan                       # Row buffer hit rate for reads (Ratio)
system.far_mem_ctrl.dram.writeRowHitRate         0.68                       # Row buffer hit rate for writes (Ratio)
system.far_mem_ctrl.dram.bytesPerActivate::samples       933579                       # Bytes accessed per row activation (Byte)
system.far_mem_ctrl.dram.bytesPerActivate::mean    64.436754                       # Bytes accessed per row activation (Byte)
system.far_mem_ctrl.dram.bytesPerActivate::gmean    64.120706                       # Bytes accessed per row activation (Byte)
system.far_mem_ctrl.dram.bytesPerActivate::stdev    16.915577                       # Bytes accessed per row activation (Byte)
system.far_mem_ctrl.dram.bytesPerActivate::0-127       932536     99.89%     99.89% # Bytes accessed per row activation (Byte)
system.far_mem_ctrl.dram.bytesPerActivate::128-255          362      0.04%     99.93% # Bytes accessed per row activation (Byte)
system.far_mem_ctrl.dram.bytesPerActivate::256-383          160      0.02%     99.94% # Bytes accessed per row activation (Byte)
system.far_mem_ctrl.dram.bytesPerActivate::384-511          127      0.01%     99.96% # Bytes accessed per row activation (Byte)
system.far_mem_ctrl.dram.bytesPerActivate::512-639           85      0.01%     99.97% # Bytes accessed per row activation (Byte)
system.far_mem_ctrl.dram.bytesPerActivate::640-767           72      0.01%     99.97% # Bytes accessed per row activation (Byte)
system.far_mem_ctrl.dram.bytesPerActivate::768-895           41      0.00%     99.98% # Bytes accessed per row activation (Byte)
system.far_mem_ctrl.dram.bytesPerActivate::896-1023           41      0.00%     99.98% # Bytes accessed per row activation (Byte)
system.far_mem_ctrl.dram.bytesPerActivate::1024-1151          155      0.02%    100.00% # Bytes accessed per row activation (Byte)
system.far_mem_ctrl.dram.bytesPerActivate::total       933579                       # Bytes accessed per row activation (Byte)
system.far_mem_ctrl.dram.bytesRead                  0                       # Total bytes read (Byte)
system.far_mem_ctrl.dram.bytesWritten        60157888                       # Total bytes written (Byte)
system.far_mem_ctrl.dram.avgRdBW                    0                       # Average DRAM read bandwidth in MiBytes/s ((Byte/Second))
system.far_mem_ctrl.dram.avgWrBW          6015.788800                       # Average DRAM write bandwidth in MiBytes/s ((Byte/Second))
system.far_mem_ctrl.dram.peakBW              19207.00                       # Theoretical peak bandwidth in MiByte/s ((Byte/Second))
system.far_mem_ctrl.dram.busUtil                31.32                       # Data bus utilization in percentage (Ratio)
system.far_mem_ctrl.dram.busUtilRead             0.00                       # Data bus utilization in percentage for reads (Ratio)
system.far_mem_ctrl.dram.busUtilWrite           31.32                       # Data bus utilization in percentage for writes (Ratio)
system.far_mem_ctrl.dram.pageHitRate             0.68                       # Row buffer hit rate, read and write combined (Ratio)
system.far_mem_ctrl.dram.power_state.pwrStateResidencyTicks::UNDEFINED  10000000000                       # Cumulative time (in ticks) in various power states (Tick)
system.far_mem_ctrl.dram.rank0.actEnergy 1471342987.296003                       # Energy for activate commands per rank (pJ) (Joule)
system.far_mem_ctrl.dram.rank0.preEnergy 1956106760.193598                       # Energy for precharge commands per rank (pJ) (Joule)
system.far_mem_ctrl.dram.rank0.readEnergy            0                       # Energy for read commands per rank (pJ) (Joule)
system.far_mem_ctrl.dram.rank0.writeEnergy 1796805390.239999                       # Energy for write commands per rank (pJ) (Joule)
system.far_mem_ctrl.dram.rank0.refreshEnergy 1778824873.324749                       # Energy for refresh commands per rank (pJ) (Joule)
system.far_mem_ctrl.dram.rank0.actBackEnergy 8227570151.001590                       # Energy for active background per rank (pJ) (Joule)
system.far_mem_ctrl.dram.rank0.preBackEnergy 206251226.496002                       # Energy for precharge background per rank (pJ) (Joule)
system.far_mem_ctrl.dram.rank0.actPowerDownEnergy            0                       # Energy for active power-down per rank (pJ) (Joule)
system.far_mem_ctrl.dram.rank0.prePowerDownEnergy            0                       # Energy for precharge power-down per rank (pJ) (Joule)
system.far_mem_ctrl.dram.rank0.selfRefreshEnergy            0                       # Energy for self refresh per rank (pJ) (Joule)
system.far_mem_ctrl.dram.rank0.totalEnergy 15436901388.552010                       # Total energy per rank (pJ) (Joule)
system.far_mem_ctrl.dram.rank0.averagePower  1543.690139                       # Core power per rank (mW) (Watt)
system.far_mem_ctrl.dram.rank0.totalIdleTime            0                       # Total Idle time Per DRAM Rank (Tick)
system.far_mem_ctrl.dram.rank0.pwrStateTime::IDLE    279898336                       # Time in different power states (Tick)
system.far_mem_ctrl.dram.rank0.pwrStateTime::REF    449400000                       # Time in different power states (Tick)
system.far_mem_ctrl.dram.rank0.pwrStateTime::SREF            0                       # Time in different power states (Tick)
system.far_mem_ctrl.dram.rank0.pwrStateTime::PRE_PDN            0                       # Time in different power states (Tick)
system.far_mem_ctrl.dram.rank0.pwrStateTime::ACT   9270701664                       # Time in different power states (Tick)
system.far_mem_ctrl.dram.rank0.pwrStateTime::ACT_PDN            0                       # Time in different power states (Tick)
system.far_mem_ctrl.dram.rank1.actEnergy 1440311404.895999                       # Energy for activate commands per rank (pJ) (Joule)
system.far_mem_ctrl.dram.rank1.preEnergy 1914817498.507197                       # Energy for precharge commands per rank (pJ) (Joule)
system.far_mem_ctrl.dram.rank1.readEnergy            0                       # Energy for read commands per rank (pJ) (Joule)
system.far_mem_ctrl.dram.rank1.writeEnergy 1736056819.392002                       # Energy for write commands per rank (pJ) (Joule)
system.far_mem_ctrl.dram.rank1.refreshEnergy 1778824873.324749                       # Energy for refresh commands per rank (pJ) (Joule)
system.far_mem_ctrl.dram.rank1.actBackEnergy 8224874457.710396                       # Energy for active background per rank (pJ) (Joule)
system.far_mem_ctrl.dram.rank1.preBackEnergy 208322493.657602                       # Energy for precharge background per rank (pJ) (Joule)
system.far_mem_ctrl.dram.rank1.actPowerDownEnergy            0                       # Energy for active power-down per rank (pJ) (Joule)
system.far_mem_ctrl.dram.rank1.prePowerDownEnergy            0                       # Energy for precharge power-down per rank (pJ) (Joule)
system.far_mem_ctrl.dram.rank1.selfRefreshEnergy            0                       # Energy for self refresh per rank (pJ) (Joule)
system.far_mem_ctrl.dram.rank1.totalEnergy 15303207547.487997                       # Total energy per rank (pJ) (Joule)
system.far_mem_ctrl.dram.rank1.averagePower  1530.320755                       # Core power per rank (mW) (Watt)
system.far_mem_ctrl.dram.rank1.totalIdleTime            0                       # Total Idle time Per DRAM Rank (Tick)
system.far_mem_ctrl.dram.rank1.pwrStateTime::IDLE    283026539                       # Time in different power states (Tick)
system.far_mem_ctrl.dram.rank1.pwrStateTime::REF    449400000                       # Time in different power states (Tick)
system.far_mem_ctrl.dram.rank1.pwrStateTime::SREF            0                       # Time in different power states (Tick)
system.far_mem_ctrl.dram.rank1.pwrStateTime::PRE_PDN            0                       # Time in different power states (Tick)
system.far_mem_ctrl.dram.rank1.pwrStateTime::ACT   9267573461                       # Time in different power states (Tick)
system.far_mem_ctrl.dram.rank1.pwrStateTime::ACT_PDN            0                       # Time in different power states (Tick)
system.far_mem_ctrl.power_state.pwrStateResidencyTicks::UNDEFINED  10000000000                       # Cumulative time (in ticks) in various power states (Tick)
system.generator.numSuppressed                      0                       # Number of suppressed packets to non-memory space (Count)
system.generator.numPackets                   1781341                       # Number of packets generated (Count)
system.generator.numRetries                   1779303                       # Number of retries (Count)
system.generator.retryTicks                9993215575                       # Time spent waiting due to back-pressure (Tick)
system.generator.bytesRead                          0                       # Number of bytes read (Byte)
system.generator.bytesWritten               114005696                       # Number of bytes written (Byte)
system.generator.totalReadLatency                   0                       # Total latency of read requests (Tick)
system.generator.totalWriteLatency        45944668527                       # Total latency of write requests (Tick)
system.generator.totalReads                         0                       # Total num of reads (Count)
system.generator.totalWrites                  1781339                       # Total num of writes (Count)
system.generator.avgReadLatency                   nan                       # Avg latency of read requests ((Tick/Count))
system.generator.avgWriteLatency         25792.209415                       # Avg latency of write requests ((Tick/Count))
system.generator.readBW                             0                       # Read bandwidth ((Byte/Second))
system.generator.writeBW                  11400569600                       # Write bandwidth ((Byte/Second))
system.generator.power_state.pwrStateResidencyTicks::UNDEFINED  10000000000                       # Cumulative time (in ticks) in various power states (Tick)
system.loc_mem_ctrl.avgPriority_writebacks::samples   7124854.00                       # Average QoS priority value for accepted requests (Count)
system.loc_mem_ctrl.priorityMinLatency   0.000000027000                       # per QoS priority minimum request to response latency (Second)
system.loc_mem_ctrl.priorityMaxLatency   0.000003144000                       # per QoS priority maximum request to response latency (Second)
system.loc_mem_ctrl.numReadWriteTurnArounds            0                       # Number of turnarounds from READ to WRITE (Count)
system.loc_mem_ctrl.numWriteReadTurnArounds            0                       # Number of turnarounds from WRITE to READ (Count)
system.loc_mem_ctrl.numStayReadState          7184023                       # Number of times bus staying in READ state (Count)
system.loc_mem_ctrl.numStayWriteState               0                       # Number of times bus staying in WRITE state (Count)
system.loc_mem_ctrl.readReqs                  1781341                       # Number of read requests accepted (Count)
system.loc_mem_ctrl.writeReqs                 1781089                       # Number of write requests accepted (Count)
system.loc_mem_ctrl.readBursts                3562682                       # Number of controller read bursts, including those serviced by the write queue (Count)
system.loc_mem_ctrl.writeBursts               3562178                       # Number of controller write bursts, including those merged in the write queue (Count)
system.loc_mem_ctrl.servicedByWrQ                   6                       # Number of controller read bursts serviced by the write queue (Count)
system.loc_mem_ctrl.mergedWrBursts                  0                       # Number of controller write bursts merged with an existing one (Count)
system.loc_mem_ctrl.avgRdQLen                   91.41                       # Average read queue length when enqueuing ((Count/Tick))
system.loc_mem_ctrl.avgWrQLen                   81.63                       # Average write queue length when enqueuing ((Count/Tick))
system.loc_mem_ctrl.numRdRetry                4719778                       # Number of times read queue was full causing retry (Count)
system.loc_mem_ctrl.numWrRetry                5292303                       # Number of times write queue was full causing retry (Count)
system.loc_mem_ctrl.readPktSize::0                  0                       # Read request sizes (log2) (Count)
system.loc_mem_ctrl.readPktSize::1                  0                       # Read request sizes (log2) (Count)
system.loc_mem_ctrl.readPktSize::2                  0                       # Read request sizes (log2) (Count)
system.loc_mem_ctrl.readPktSize::3                  0                       # Read request sizes (log2) (Count)
system.loc_mem_ctrl.readPktSize::4                  0                       # Read request sizes (log2) (Count)
system.loc_mem_ctrl.readPktSize::5            3562682                       # Read request sizes (log2) (Count)
system.loc_mem_ctrl.readPktSize::6                  0                       # Read request sizes (log2) (Count)
system.loc_mem_ctrl.writePktSize::0                 0                       # Write request sizes (log2) (Count)
system.loc_mem_ctrl.writePktSize::1                 0                       # Write request sizes (log2) (Count)
system.loc_mem_ctrl.writePktSize::2                 0                       # Write request sizes (log2) (Count)
system.loc_mem_ctrl.writePktSize::3                 0                       # Write request sizes (log2) (Count)
system.loc_mem_ctrl.writePktSize::4                 0                       # Write request sizes (log2) (Count)
system.loc_mem_ctrl.writePktSize::5           3562178                       # Write request sizes (log2) (Count)
system.loc_mem_ctrl.writePktSize::6                 0                       # Write request sizes (log2) (Count)
system.loc_mem_ctrl.rdQLenPdf::0                  812                       # What read queue length does an incoming req see (Count)
system.loc_mem_ctrl.rdQLenPdf::1                  967                       # What read queue length does an incoming req see (Count)
system.loc_mem_ctrl.rdQLenPdf::2                 3518                       # What read queue length does an incoming req see (Count)
system.loc_mem_ctrl.rdQLenPdf::3                 4275                       # What read queue length does an incoming req see (Count)
system.loc_mem_ctrl.rdQLenPdf::4                 4772                       # What read queue length does an incoming req see (Count)
system.loc_mem_ctrl.rdQLenPdf::5                 5384                       # What read queue length does an incoming req see (Count)
system.loc_mem_ctrl.rdQLenPdf::6                 5211                       # What read queue length does an incoming req see (Count)
system.loc_mem_ctrl.rdQLenPdf::7                 5327                       # What read queue length does an incoming req see (Count)
system.loc_mem_ctrl.rdQLenPdf::8                 5344                       # What read queue length does an incoming req see (Count)
system.loc_mem_ctrl.rdQLenPdf::9                 5484                       # What read queue length does an incoming req see (Count)
system.loc_mem_ctrl.rdQLenPdf::10                5490                       # What read queue length does an incoming req see (Count)
system.loc_mem_ctrl.rdQLenPdf::11                5708                       # What read queue length does an incoming req see (Count)
system.loc_mem_ctrl.rdQLenPdf::12                5816                       # What read queue length does an incoming req see (Count)
system.loc_mem_ctrl.rdQLenPdf::13                5942                       # What read queue length does an incoming req see (Count)
system.loc_mem_ctrl.rdQLenPdf::14                5864                       # What read queue length does an incoming req see (Count)
system.loc_mem_ctrl.rdQLenPdf::15                5870                       # What read queue length does an incoming req see (Count)
system.loc_mem_ctrl.rdQLenPdf::16                6245                       # What read queue length does an incoming req see (Count)
system.loc_mem_ctrl.rdQLenPdf::17                6322                       # What read queue length does an incoming req see (Count)
system.loc_mem_ctrl.rdQLenPdf::18                6262                       # What read queue length does an incoming req see (Count)
system.loc_mem_ctrl.rdQLenPdf::19                6464                       # What read queue length does an incoming req see (Count)
system.loc_mem_ctrl.rdQLenPdf::20                6285                       # What read queue length does an incoming req see (Count)
system.loc_mem_ctrl.rdQLenPdf::21                6285                       # What read queue length does an incoming req see (Count)
system.loc_mem_ctrl.rdQLenPdf::22                6374                       # What read queue length does an incoming req see (Count)
system.loc_mem_ctrl.rdQLenPdf::23                6396                       # What read queue length does an incoming req see (Count)
system.loc_mem_ctrl.rdQLenPdf::24                6253                       # What read queue length does an incoming req see (Count)
system.loc_mem_ctrl.rdQLenPdf::25                6311                       # What read queue length does an incoming req see (Count)
system.loc_mem_ctrl.rdQLenPdf::26                6321                       # What read queue length does an incoming req see (Count)
system.loc_mem_ctrl.rdQLenPdf::27                6248                       # What read queue length does an incoming req see (Count)
system.loc_mem_ctrl.rdQLenPdf::28                6281                       # What read queue length does an incoming req see (Count)
system.loc_mem_ctrl.rdQLenPdf::29                6382                       # What read queue length does an incoming req see (Count)
system.loc_mem_ctrl.rdQLenPdf::30                6348                       # What read queue length does an incoming req see (Count)
system.loc_mem_ctrl.rdQLenPdf::31                6351                       # What read queue length does an incoming req see (Count)
system.loc_mem_ctrl.rdQLenPdf::32                6417                       # What read queue length does an incoming req see (Count)
system.loc_mem_ctrl.rdQLenPdf::33                6426                       # What read queue length does an incoming req see (Count)
system.loc_mem_ctrl.rdQLenPdf::34                6527                       # What read queue length does an incoming req see (Count)
system.loc_mem_ctrl.rdQLenPdf::35                6568                       # What read queue length does an incoming req see (Count)
system.loc_mem_ctrl.rdQLenPdf::36                6529                       # What read queue length does an incoming req see (Count)
system.loc_mem_ctrl.rdQLenPdf::37                6599                       # What read queue length does an incoming req see (Count)
system.loc_mem_ctrl.rdQLenPdf::38                6589                       # What read queue length does an incoming req see (Count)
system.loc_mem_ctrl.rdQLenPdf::39                6642                       # What read queue length does an incoming req see (Count)
system.loc_mem_ctrl.rdQLenPdf::40               12742                       # What read queue length does an incoming req see (Count)
system.loc_mem_ctrl.rdQLenPdf::41               15058                       # What read queue length does an incoming req see (Count)
system.loc_mem_ctrl.rdQLenPdf::42               14168                       # What read queue length does an incoming req see (Count)
system.loc_mem_ctrl.rdQLenPdf::43               14482                       # What read queue length does an incoming req see (Count)
system.loc_mem_ctrl.rdQLenPdf::44               15596                       # What read queue length does an incoming req see (Count)
system.loc_mem_ctrl.rdQLenPdf::45               15419                       # What read queue length does an incoming req see (Count)
system.loc_mem_ctrl.rdQLenPdf::46               15696                       # What read queue length does an incoming req see (Count)
system.loc_mem_ctrl.rdQLenPdf::47               16187                       # What read queue length does an incoming req see (Count)
system.loc_mem_ctrl.rdQLenPdf::48               16111                       # What read queue length does an incoming req see (Count)
system.loc_mem_ctrl.rdQLenPdf::49               16431                       # What read queue length does an incoming req see (Count)
system.loc_mem_ctrl.rdQLenPdf::50               17066                       # What read queue length does an incoming req see (Count)
system.loc_mem_ctrl.rdQLenPdf::51               17319                       # What read queue length does an incoming req see (Count)
system.loc_mem_ctrl.rdQLenPdf::52               17748                       # What read queue length does an incoming req see (Count)
system.loc_mem_ctrl.rdQLenPdf::53               17954                       # What read queue length does an incoming req see (Count)
system.loc_mem_ctrl.rdQLenPdf::54               18488                       # What read queue length does an incoming req see (Count)
system.loc_mem_ctrl.rdQLenPdf::55               18879                       # What read queue length does an incoming req see (Count)
system.loc_mem_ctrl.rdQLenPdf::56               19467                       # What read queue length does an incoming req see (Count)
system.loc_mem_ctrl.rdQLenPdf::57               20104                       # What read queue length does an incoming req see (Count)
system.loc_mem_ctrl.rdQLenPdf::58               20817                       # What read queue length does an incoming req see (Count)
system.loc_mem_ctrl.rdQLenPdf::59               21347                       # What read queue length does an incoming req see (Count)
system.loc_mem_ctrl.rdQLenPdf::60               22044                       # What read queue length does an incoming req see (Count)
system.loc_mem_ctrl.rdQLenPdf::61               22845                       # What read queue length does an incoming req see (Count)
system.loc_mem_ctrl.rdQLenPdf::62               33913                       # What read queue length does an incoming req see (Count)
system.loc_mem_ctrl.rdQLenPdf::63               36701                       # What read queue length does an incoming req see (Count)
system.loc_mem_ctrl.rdQLenPdf::64               37884                       # What read queue length does an incoming req see (Count)
system.loc_mem_ctrl.rdQLenPdf::65               40585                       # What read queue length does an incoming req see (Count)
system.loc_mem_ctrl.rdQLenPdf::66               41645                       # What read queue length does an incoming req see (Count)
system.loc_mem_ctrl.rdQLenPdf::67               45596                       # What read queue length does an incoming req see (Count)
system.loc_mem_ctrl.rdQLenPdf::68               47038                       # What read queue length does an incoming req see (Count)
system.loc_mem_ctrl.rdQLenPdf::69               49582                       # What read queue length does an incoming req see (Count)
system.loc_mem_ctrl.rdQLenPdf::70               52798                       # What read queue length does an incoming req see (Count)
system.loc_mem_ctrl.rdQLenPdf::71               55131                       # What read queue length does an incoming req see (Count)
system.loc_mem_ctrl.rdQLenPdf::72               58153                       # What read queue length does an incoming req see (Count)
system.loc_mem_ctrl.rdQLenPdf::73               60644                       # What read queue length does an incoming req see (Count)
system.loc_mem_ctrl.rdQLenPdf::74               63037                       # What read queue length does an incoming req see (Count)
system.loc_mem_ctrl.rdQLenPdf::75               65340                       # What read queue length does an incoming req see (Count)
system.loc_mem_ctrl.rdQLenPdf::76               68209                       # What read queue length does an incoming req see (Count)
system.loc_mem_ctrl.rdQLenPdf::77               69366                       # What read queue length does an incoming req see (Count)
system.loc_mem_ctrl.rdQLenPdf::78               71329                       # What read queue length does an incoming req see (Count)
system.loc_mem_ctrl.rdQLenPdf::79               71805                       # What read queue length does an incoming req see (Count)
system.loc_mem_ctrl.rdQLenPdf::80               72268                       # What read queue length does an incoming req see (Count)
system.loc_mem_ctrl.rdQLenPdf::81               72577                       # What read queue length does an incoming req see (Count)
system.loc_mem_ctrl.rdQLenPdf::82               73436                       # What read queue length does an incoming req see (Count)
system.loc_mem_ctrl.rdQLenPdf::83               73983                       # What read queue length does an incoming req see (Count)
system.loc_mem_ctrl.rdQLenPdf::84               74338                       # What read queue length does an incoming req see (Count)
system.loc_mem_ctrl.rdQLenPdf::85               74657                       # What read queue length does an incoming req see (Count)
system.loc_mem_ctrl.rdQLenPdf::86               74736                       # What read queue length does an incoming req see (Count)
system.loc_mem_ctrl.rdQLenPdf::87               74542                       # What read queue length does an incoming req see (Count)
system.loc_mem_ctrl.rdQLenPdf::88               74256                       # What read queue length does an incoming req see (Count)
system.loc_mem_ctrl.rdQLenPdf::89               73712                       # What read queue length does an incoming req see (Count)
system.loc_mem_ctrl.rdQLenPdf::90               73136                       # What read queue length does an incoming req see (Count)
system.loc_mem_ctrl.rdQLenPdf::91               72688                       # What read queue length does an incoming req see (Count)
system.loc_mem_ctrl.rdQLenPdf::92               72169                       # What read queue length does an incoming req see (Count)
system.loc_mem_ctrl.rdQLenPdf::93               71922                       # What read queue length does an incoming req see (Count)
system.loc_mem_ctrl.rdQLenPdf::94               70749                       # What read queue length does an incoming req see (Count)
system.loc_mem_ctrl.rdQLenPdf::95               69928                       # What read queue length does an incoming req see (Count)
system.loc_mem_ctrl.rdQLenPdf::96               68922                       # What read queue length does an incoming req see (Count)
system.loc_mem_ctrl.rdQLenPdf::97               68144                       # What read queue length does an incoming req see (Count)
system.loc_mem_ctrl.rdQLenPdf::98               67107                       # What read queue length does an incoming req see (Count)
system.loc_mem_ctrl.rdQLenPdf::99               66267                       # What read queue length does an incoming req see (Count)
system.loc_mem_ctrl.rdQLenPdf::100              65383                       # What read queue length does an incoming req see (Count)
system.loc_mem_ctrl.rdQLenPdf::101              64298                       # What read queue length does an incoming req see (Count)
system.loc_mem_ctrl.rdQLenPdf::102              63167                       # What read queue length does an incoming req see (Count)
system.loc_mem_ctrl.rdQLenPdf::103              59205                       # What read queue length does an incoming req see (Count)
system.loc_mem_ctrl.rdQLenPdf::104              46396                       # What read queue length does an incoming req see (Count)
system.loc_mem_ctrl.rdQLenPdf::105              28389                       # What read queue length does an incoming req see (Count)
system.loc_mem_ctrl.rdQLenPdf::106              13473                       # What read queue length does an incoming req see (Count)
system.loc_mem_ctrl.rdQLenPdf::107              12048                       # What read queue length does an incoming req see (Count)
system.loc_mem_ctrl.rdQLenPdf::108              11161                       # What read queue length does an incoming req see (Count)
system.loc_mem_ctrl.rdQLenPdf::109              10920                       # What read queue length does an incoming req see (Count)
system.loc_mem_ctrl.rdQLenPdf::110              10612                       # What read queue length does an incoming req see (Count)
system.loc_mem_ctrl.rdQLenPdf::111              10500                       # What read queue length does an incoming req see (Count)
system.loc_mem_ctrl.rdQLenPdf::112              10345                       # What read queue length does an incoming req see (Count)
system.loc_mem_ctrl.rdQLenPdf::113              10197                       # What read queue length does an incoming req see (Count)
system.loc_mem_ctrl.rdQLenPdf::114               9994                       # What read queue length does an incoming req see (Count)
system.loc_mem_ctrl.rdQLenPdf::115               9931                       # What read queue length does an incoming req see (Count)
system.loc_mem_ctrl.rdQLenPdf::116               9543                       # What read queue length does an incoming req see (Count)
system.loc_mem_ctrl.rdQLenPdf::117               9416                       # What read queue length does an incoming req see (Count)
system.loc_mem_ctrl.rdQLenPdf::118               9276                       # What read queue length does an incoming req see (Count)
system.loc_mem_ctrl.rdQLenPdf::119               9209                       # What read queue length does an incoming req see (Count)
system.loc_mem_ctrl.rdQLenPdf::120               9083                       # What read queue length does an incoming req see (Count)
system.loc_mem_ctrl.rdQLenPdf::121               8926                       # What read queue length does an incoming req see (Count)
system.loc_mem_ctrl.rdQLenPdf::122               8684                       # What read queue length does an incoming req see (Count)
system.loc_mem_ctrl.rdQLenPdf::123               8559                       # What read queue length does an incoming req see (Count)
system.loc_mem_ctrl.rdQLenPdf::124               8286                       # What read queue length does an incoming req see (Count)
system.loc_mem_ctrl.rdQLenPdf::125               8100                       # What read queue length does an incoming req see (Count)
system.loc_mem_ctrl.rdQLenPdf::126               7611                       # What read queue length does an incoming req see (Count)
system.loc_mem_ctrl.rdQLenPdf::127               6494                       # What read queue length does an incoming req see (Count)
system.loc_mem_ctrl.wrQLenPdf::0                  858                       # What write queue length does an incoming req see (Count)
system.loc_mem_ctrl.wrQLenPdf::1                 1190                       # What write queue length does an incoming req see (Count)
system.loc_mem_ctrl.wrQLenPdf::2                 1244                       # What write queue length does an incoming req see (Count)
system.loc_mem_ctrl.wrQLenPdf::3                 1538                       # What write queue length does an incoming req see (Count)
system.loc_mem_ctrl.wrQLenPdf::4                 1668                       # What write queue length does an incoming req see (Count)
system.loc_mem_ctrl.wrQLenPdf::5                 1946                       # What write queue length does an incoming req see (Count)
system.loc_mem_ctrl.wrQLenPdf::6                 2010                       # What write queue length does an incoming req see (Count)
system.loc_mem_ctrl.wrQLenPdf::7                 2235                       # What write queue length does an incoming req see (Count)
system.loc_mem_ctrl.wrQLenPdf::8                 2386                       # What write queue length does an incoming req see (Count)
system.loc_mem_ctrl.wrQLenPdf::9                 2584                       # What write queue length does an incoming req see (Count)
system.loc_mem_ctrl.wrQLenPdf::10                2642                       # What write queue length does an incoming req see (Count)
system.loc_mem_ctrl.wrQLenPdf::11                2827                       # What write queue length does an incoming req see (Count)
system.loc_mem_ctrl.wrQLenPdf::12                2958                       # What write queue length does an incoming req see (Count)
system.loc_mem_ctrl.wrQLenPdf::13                3099                       # What write queue length does an incoming req see (Count)
system.loc_mem_ctrl.wrQLenPdf::14                3176                       # What write queue length does an incoming req see (Count)
system.loc_mem_ctrl.wrQLenPdf::15                3309                       # What write queue length does an incoming req see (Count)
system.loc_mem_ctrl.wrQLenPdf::16                3505                       # What write queue length does an incoming req see (Count)
system.loc_mem_ctrl.wrQLenPdf::17                3689                       # What write queue length does an incoming req see (Count)
system.loc_mem_ctrl.wrQLenPdf::18                3759                       # What write queue length does an incoming req see (Count)
system.loc_mem_ctrl.wrQLenPdf::19                3884                       # What write queue length does an incoming req see (Count)
system.loc_mem_ctrl.wrQLenPdf::20                4048                       # What write queue length does an incoming req see (Count)
system.loc_mem_ctrl.wrQLenPdf::21                4117                       # What write queue length does an incoming req see (Count)
system.loc_mem_ctrl.wrQLenPdf::22                4177                       # What write queue length does an incoming req see (Count)
system.loc_mem_ctrl.wrQLenPdf::23                4256                       # What write queue length does an incoming req see (Count)
system.loc_mem_ctrl.wrQLenPdf::24                4483                       # What write queue length does an incoming req see (Count)
system.loc_mem_ctrl.wrQLenPdf::25                4648                       # What write queue length does an incoming req see (Count)
system.loc_mem_ctrl.wrQLenPdf::26                4749                       # What write queue length does an incoming req see (Count)
system.loc_mem_ctrl.wrQLenPdf::27                4851                       # What write queue length does an incoming req see (Count)
system.loc_mem_ctrl.wrQLenPdf::28                4992                       # What write queue length does an incoming req see (Count)
system.loc_mem_ctrl.wrQLenPdf::29                5028                       # What write queue length does an incoming req see (Count)
system.loc_mem_ctrl.wrQLenPdf::30                5143                       # What write queue length does an incoming req see (Count)
system.loc_mem_ctrl.wrQLenPdf::31                5319                       # What write queue length does an incoming req see (Count)
system.loc_mem_ctrl.wrQLenPdf::32                5524                       # What write queue length does an incoming req see (Count)
system.loc_mem_ctrl.wrQLenPdf::33                5703                       # What write queue length does an incoming req see (Count)
system.loc_mem_ctrl.wrQLenPdf::34                5748                       # What write queue length does an incoming req see (Count)
system.loc_mem_ctrl.wrQLenPdf::35                5797                       # What write queue length does an incoming req see (Count)
system.loc_mem_ctrl.wrQLenPdf::36                6055                       # What write queue length does an incoming req see (Count)
system.loc_mem_ctrl.wrQLenPdf::37                6026                       # What write queue length does an incoming req see (Count)
system.loc_mem_ctrl.wrQLenPdf::38                6027                       # What write queue length does an incoming req see (Count)
system.loc_mem_ctrl.wrQLenPdf::39                6182                       # What write queue length does an incoming req see (Count)
system.loc_mem_ctrl.wrQLenPdf::40                6356                       # What write queue length does an incoming req see (Count)
system.loc_mem_ctrl.wrQLenPdf::41                6445                       # What write queue length does an incoming req see (Count)
system.loc_mem_ctrl.wrQLenPdf::42                6591                       # What write queue length does an incoming req see (Count)
[...]
system.loc_mem_ctrl.dram_2.bwTotal::total  11383929600                       # Total bandwidth to/from this memory ((Byte/Second))
system.loc_mem_ctrl.dram_2.readBursts         1778839                       # Number of DRAM read bursts (Count)
system.loc_mem_ctrl.dram_2.writeBursts        1778648                       # Number of DRAM write bursts (Count)
system.loc_mem_ctrl.dram_2.perBankRdBursts::0       111130                       # Per bank write bursts (Count)
system.loc_mem_ctrl.dram_2.perBankRdBursts::1       111736                       # Per bank write bursts (Count)
system.loc_mem_ctrl.dram_2.perBankRdBursts::2       111554                       # Per bank write bursts (Count)
system.loc_mem_ctrl.dram_2.perBankRdBursts::3       110226                       # Per bank write bursts (Count)
system.loc_mem_ctrl.dram_2.perBankRdBursts::4       111334                       # Per bank write bursts (Count)
system.loc_mem_ctrl.dram_2.perBankRdBursts::5       111384                       # Per bank write bursts (Count)
system.loc_mem_ctrl.dram_2.perBankRdBursts::6       110968                       # Per bank write bursts (Count)
system.loc_mem_ctrl.dram_2.perBankRdBursts::7       110766                       # Per bank write bursts (Count)
system.loc_mem_ctrl.dram_2.perBankRdBursts::8       112058                       # Per bank write bursts (Count)
system.loc_mem_ctrl.dram_2.perBankRdBursts::9       110790                       # Per bank write bursts (Count)
system.loc_mem_ctrl.dram_2.perBankRdBursts::10       110896                       # Per bank write bursts (Count)
system.loc_mem_ctrl.dram_2.perBankRdBursts::11       111339                       # Per bank write bursts (Count)
system.loc_mem_ctrl.dram_2.perBankRdBursts::12       111402                       # Per bank write bursts (Count)
system.loc_mem_ctrl.dram_2.perBankRdBursts::13       111066                       # Per bank write bursts (Count)
system.loc_mem_ctrl.dram_2.perBankRdBursts::14       110648                       # Per bank write bursts (Count)
system.loc_mem_ctrl.dram_2.perBankRdBursts::15       111542                       # Per bank write bursts (Count)
system.loc_mem_ctrl.dram_2.perBankWrBursts::0       111122                       # Per bank write bursts (Count)
system.loc_mem_ctrl.dram_2.perBankWrBursts::1       111720                       # Per bank write bursts (Count)
system.loc_mem_ctrl.dram_2.perBankWrBursts::2       111546                       # Per bank write bursts (Count)
system.loc_mem_ctrl.dram_2.perBankWrBursts::3       110216                       # Per bank write bursts (Count)
system.loc_mem_ctrl.dram_2.perBankWrBursts::4       111320                       # Per bank write bursts (Count)
system.loc_mem_ctrl.dram_2.perBankWrBursts::5       111368                       # Per bank write bursts (Count)
system.loc_mem_ctrl.dram_2.perBankWrBursts::6       110960                       # Per bank write bursts (Count)
system.loc_mem_ctrl.dram_2.perBankWrBursts::7       110760                       # Per bank write bursts (Count)
system.loc_mem_ctrl.dram_2.perBankWrBursts::8       112046                       # Per bank write bursts (Count)
system.loc_mem_ctrl.dram_2.perBankWrBursts::9       110780                       # Per bank write bursts (Count)
system.loc_mem_ctrl.dram_2.perBankWrBursts::10       110886                       # Per bank write bursts (Count)
system.loc_mem_ctrl.dram_2.perBankWrBursts::11       111326                       # Per bank write bursts (Count)
system.loc_mem_ctrl.dram_2.perBankWrBursts::12       111380                       # Per bank write bursts (Count)
system.loc_mem_ctrl.dram_2.perBankWrBursts::13       111060                       # Per bank write bursts (Count)
system.loc_mem_ctrl.dram_2.perBankWrBursts::14       110630                       # Per bank write bursts (Count)
system.loc_mem_ctrl.dram_2.perBankWrBursts::15       111528                       # Per bank write bursts (Count)
system.loc_mem_ctrl.dram_2.totQLat       367710920876                       # Total ticks spent queuing (Tick)
system.loc_mem_ctrl.dram_2.totBusLat       3557678000                       # Total ticks spent in databus transfers (Tick)
system.loc_mem_ctrl.dram_2.totMemAccLat  403287700876                       # Total ticks spent from burst creation until serviced by the DRAM (Tick)
system.loc_mem_ctrl.dram_2.avgQLat          206714.00                       # Average queueing delay per DRAM burst ((Tick/Count))
system.loc_mem_ctrl.dram_2.avgBusLat          2000.00                       # Average bus latency per DRAM burst ((Tick/Count))
system.loc_mem_ctrl.dram_2.avgMemAccLat     226714.00                       # Average memory access latency per DRAM burst ((Tick/Count))
system.loc_mem_ctrl.dram_2.readRowHits         888322                       # Number of row buffer hits during reads (Count)
system.loc_mem_ctrl.dram_2.writeRowHits        888234                       # Number of row buffer hits during writes (Count)
system.loc_mem_ctrl.dram_2.readRowHitRate        49.94                       # Row buffer hit rate for reads (Ratio)
system.loc_mem_ctrl.dram_2.writeRowHitRate        49.94                       # Row buffer hit rate for writes (Ratio)
system.loc_mem_ctrl.dram_2.bytesPerActivate::samples      1780930                       # Bytes accessed per row activation (Byte)
system.loc_mem_ctrl.dram_2.bytesPerActivate::mean    63.921407                       # Bytes accessed per row activation (Byte)
system.loc_mem_ctrl.dram_2.bytesPerActivate::gmean    63.890568                       # Bytes accessed per row activation (Byte)
system.loc_mem_ctrl.dram_2.bytesPerActivate::stdev     1.608769                       # Bytes accessed per row activation (Byte)
system.loc_mem_ctrl.dram_2.bytesPerActivate::32-47         4420      0.25%      0.25% # Bytes accessed per row activation (Byte)
system.loc_mem_ctrl.dram_2.bytesPerActivate::64-79      1776487     99.75%    100.00% # Bytes accessed per row activation (Byte)
system.loc_mem_ctrl.dram_2.bytesPerActivate::128-143           23      0.00%    100.00% # Bytes accessed per row activation (Byte)
system.loc_mem_ctrl.dram_2.bytesPerActivate::total      1780930                       # Bytes accessed per row activation (Byte)
system.loc_mem_ctrl.dram_2.bytesRead         56922848                       # Total bytes read (Byte)
system.loc_mem_ctrl.dram_2.bytesWritten      56916736                       # Total bytes written (Byte)
system.loc_mem_ctrl.dram_2.avgRdBW        5692.284800                       # Average DRAM read bandwidth in MiBytes/s ((Byte/Second))
system.loc_mem_ctrl.dram_2.avgWrBW        5691.673600                       # Average DRAM write bandwidth in MiBytes/s ((Byte/Second))
system.loc_mem_ctrl.dram_2.peakBW            16000.00                       # Theoretical peak bandwidth in MiByte/s ((Byte/Second))
system.loc_mem_ctrl.dram_2.busUtil              71.15                       # Data bus utilization in percentage (Ratio)
system.loc_mem_ctrl.dram_2.busUtilRead          35.58                       # Data bus utilization in percentage for reads (Ratio)
system.loc_mem_ctrl.dram_2.busUtilWrite         35.57                       # Data bus utilization in percentage for writes (Ratio)
system.loc_mem_ctrl.dram_2.pageHitRate          49.94                       # Row buffer hit rate, read and write combined (Ratio)
system.loc_mem_ctrl.dram_2.power_state.pwrStateResidencyTicks::UNDEFINED  10000000000                       # Cumulative time (in ticks) in various power states (Tick)
system.loc_mem_ctrl.dram_2.rank0.actEnergy            0                       # Energy for activate commands per rank (pJ) (Joule)
system.loc_mem_ctrl.dram_2.rank0.preEnergy            0                       # Energy for precharge commands per rank (pJ) (Joule)
system.loc_mem_ctrl.dram_2.rank0.readEnergy            0                       # Energy for read commands per rank (pJ) (Joule)
system.loc_mem_ctrl.dram_2.rank0.writeEnergy            0                       # Energy for write commands per rank (pJ) (Joule)
system.loc_mem_ctrl.dram_2.rank0.refreshEnergy            0                       # Energy for refresh commands per rank (pJ) (Joule)
system.loc_mem_ctrl.dram_2.rank0.actBackEnergy            0                       # Energy for active background per rank (pJ) (Joule)
system.loc_mem_ctrl.dram_2.rank0.preBackEnergy            0                       # Energy for precharge background per rank (pJ) (Joule)
system.loc_mem_ctrl.dram_2.rank0.actPowerDownEnergy            0                       # Energy for active power-down per rank (pJ) (Joule)
system.loc_mem_ctrl.dram_2.rank0.prePowerDownEnergy            0                       # Energy for precharge power-down per rank (pJ) (Joule)
system.loc_mem_ctrl.dram_2.rank0.selfRefreshEnergy            0                       # Energy for self refresh per rank (pJ) (Joule)
system.loc_mem_ctrl.dram_2.rank0.totalEnergy            0                       # Total energy per rank (pJ) (Joule)
system.loc_mem_ctrl.dram_2.rank0.averagePower            0                       # Core power per rank (mW) (Watt)
system.loc_mem_ctrl.dram_2.rank0.totalIdleTime            0                       # Total Idle time Per DRAM Rank (Tick)
system.loc_mem_ctrl.dram_2.rank0.pwrStateTime::IDLE     47804039                       # Time in different power states (Tick)
system.loc_mem_ctrl.dram_2.rank0.pwrStateTime::REF    566060000                       # Time in different power states (Tick)
system.loc_mem_ctrl.dram_2.rank0.pwrStateTime::SREF            0                       # Time in different power states (Tick)
system.loc_mem_ctrl.dram_2.rank0.pwrStateTime::PRE_PDN            0                       # Time in different power states (Tick)
system.loc_mem_ctrl.dram_2.rank0.pwrStateTime::ACT   9386135961                       # Time in different power states (Tick)
system.loc_mem_ctrl.dram_2.rank0.pwrStateTime::ACT_PDN            0                       # Time in different power states (Tick)
system.loc_mem_ctrl.power_state.pwrStateResidencyTicks::UNDEFINED  10000000000                       # Cumulative time (in ticks) in various power states (Tick)
system.mem_ctrl.bytesWritten::generator     114005824                       # Number of bytes written to this memory (Byte)
system.mem_ctrl.bytesWritten::total         114005824                       # Number of bytes written to this memory (Byte)
system.mem_ctrl.numWrites::generator          1781341                       # Number of write requests responded to by this memory (Count)
system.mem_ctrl.numWrites::total              1781341                       # Number of write requests responded to by this memory (Count)
system.mem_ctrl.bwWrite::generator        11400582400                       # Write bandwidth from this memory ((Byte/Second))
system.mem_ctrl.bwWrite::total            11400582400                       # Write bandwidth from this memory ((Byte/Second))
system.mem_ctrl.bwTotal::generator        11400582400                       # Total bandwidth to/from this memory ((Byte/Second))
system.mem_ctrl.bwTotal::total            11400582400                       # Total bandwidth to/from this memory ((Byte/Second))
system.mem_ctrl.readReqs                            0                       # Number of read requests accepted (Count)
system.mem_ctrl.writeReqs                     1781341                       # Number of write requests accepted (Count)
system.mem_ctrl.servicedByWrQ                       0                       # Number of controller read bursts serviced by the write queue (Count)
system.mem_ctrl.mergedWrBursts                      9                       # Number of controller write bursts merged with an existing one (Count)
system.mem_ctrl.numRdRetry                          0                       # Number of times read queue was full causing retry (Count)
system.mem_ctrl.numWrRetry                    1779303                       # Number of times write queue was full causing retry (Count)
system.mem_ctrl.readPktSize::0                      0                       # Read request sizes (log2) (Count)
system.mem_ctrl.readPktSize::1                      0                       # Read request sizes (log2) (Count)
system.mem_ctrl.readPktSize::2                      0                       # Read request sizes (log2) (Count)
system.mem_ctrl.readPktSize::3                      0                       # Read request sizes (log2) (Count)
system.mem_ctrl.readPktSize::4                      0                       # Read request sizes (log2) (Count)
system.mem_ctrl.readPktSize::5                      0                       # Read request sizes (log2) (Count)
system.mem_ctrl.readPktSize::6                      0                       # Read request sizes (log2) (Count)
system.mem_ctrl.writePktSize::0                     0                       # Write request sizes (log2) (Count)
system.mem_ctrl.writePktSize::1                     0                       # Write request sizes (log2) (Count)
system.mem_ctrl.writePktSize::2                     0                       # Write request sizes (log2) (Count)
system.mem_ctrl.writePktSize::3                     0                       # Write request sizes (log2) (Count)
system.mem_ctrl.writePktSize::4                     0                       # Write request sizes (log2) (Count)
system.mem_ctrl.writePktSize::5                     0                       # Write request sizes (log2) (Count)
system.mem_ctrl.writePktSize::6               1781341                       # Write request sizes (log2) (Count)
system.mem_ctrl.bytesReadWrQ                        0                       # Total number of bytes read from write queue (Byte)
system.mem_ctrl.bytesReadSys                        0                       # Total read bytes from the system interface side (Byte)
system.mem_ctrl.bytesWrittenSys             114005824                       # Total written bytes from the system interface side (Byte)
system.mem_ctrl.avgRdBWSys                 0.00000000                       # Average system read bandwidth in Byte/s ((Byte/Second))
system.mem_ctrl.avgWrBWSys               11400582400.00000000                       # Average system write bandwidth in Byte/s ((Byte/Second))
system.mem_ctrl.totGap                   18446649370724749312                       # Total gap between requests (Tick)
system.mem_ctrl.avgGap                   10355484643717.71                       # Average gap between requests ((Tick/Count))
system.mem_ctrl.avgORBLen                    255.9959                       # Average ORB length ((Count/Tick))
system.mem_ctrl.avgLocRdQLenStrt               147.23                       # Average local read queue length ((Count/Tick))
system.mem_ctrl.avgLocWrQLenStrt                57.13                       # Average local write queue length ((Count/Tick))
system.mem_ctrl.avgFarRdQLenStrt                 0.00                       # Average far read queue length ((Count/Tick))
system.mem_ctrl.avgFarWrQLenStrt                 0.10                       # Average far write queue length ((Count/Tick))
system.mem_ctrl.avgLocRdQLenEnq                148.23                       # Average local read queue length when enqueuing ((Count/Tick))
system.mem_ctrl.avgLocWrQLenEnq                132.81                       # Average local write queue length when enqueuing ((Count/Tick))
system.mem_ctrl.avgFarRdQLenEnq                  0.00                       # Average far read queue length when enqueuing ((Count/Tick))
system.mem_ctrl.avgFarWrQLenEnq                  1.38                       # Average far write queue length when enqueuing ((Count/Tick))
system.mem_ctrl.numWrBacks                    1781307                       # Total number of write backs from DRAM cache to main memory (Unspecified)
system.mem_ctrl.totNumConf                        481                       # Total number of packets conflicted on DRAM cache (Unspecified)
system.mem_ctrl.totNumORBFull                 1779303                       # Total number of packets ORB full (Unspecified)
system.mem_ctrl.totNumCRBFull                       0                       # Total number of packets conflicted yet couldn't enter confBuffer (Unspecified)
system.mem_ctrl.maxNumConf                          2                       # Maximum number of packets conflicted on DRAM cache (Unspecified)
system.mem_ctrl.sentLocRdPort                 1781341                       # stat (Unspecified)
system.mem_ctrl.sentLocWrPort                 1781089                       # stat (Unspecified)
system.mem_ctrl.failedLocRdPort               4719778                       # stat (Unspecified)
system.mem_ctrl.failedLocWrPort               5292303                       # stat (Unspecified)
system.mem_ctrl.recvdRdPort                         0                       # stat (Unspecified)
system.mem_ctrl.sentFarRdPort                       0                       # stat (Unspecified)
system.mem_ctrl.sentFarWrPort                 1781307                       # stat (Unspecified)
system.mem_ctrl.failedFarRdPort                     0                       # stat (Unspecified)
system.mem_ctrl.failedFarWrPort                 28810                       # stat (Unspecified)
system.mem_ctrl.totPktsServiceTime         2559877007                       # stat (Unspecified)
system.mem_ctrl.totPktsORBTime             2559552187                       # stat (Unspecified)
system.mem_ctrl.totTimeFarRdtoSend                  0                       # stat (Unspecified)
system.mem_ctrl.totTimeFarRdtoRecv                  0                       # stat (Unspecified)
system.mem_ctrl.totTimeFarWrtoSend                  0                       # stat (Unspecified)
system.mem_ctrl.totTimeInLocRead           1589059106                       # stat (Unspecified)
system.mem_ctrl.totTimeInLocWrite           970335968                       # stat (Unspecified)
system.mem_ctrl.totTimeInFarRead                    0                       # stat (Unspecified)
system.mem_ctrl.numTotHits                          0                       # stat (Unspecified)
system.mem_ctrl.numTotMisses                  1781341                       # stat (Unspecified)
system.mem_ctrl.numColdMisses                  856551                       # stat (Unspecified)
system.mem_ctrl.numHotMisses                   924790                       # stat (Unspecified)
system.mem_ctrl.numRdMissClean                      0                       # stat (Unspecified)
system.mem_ctrl.numRdMissDirty                      0                       # stat (Unspecified)
system.mem_ctrl.numRdHit                            0                       # stat (Unspecified)
system.mem_ctrl.numWrMissClean                 856551                       # stat (Unspecified)
system.mem_ctrl.numWrMissDirty                 924790                       # stat (Unspecified)
system.mem_ctrl.numWrHit                            0                       # stat (Unspecified)
system.mem_ctrl.numRdHitDirty                       0                       # stat (Unspecified)
system.mem_ctrl.numRdHitClean                       0                       # stat (Unspecified)
system.mem_ctrl.numWrHitDirty                       0                       # stat (Unspecified)
system.mem_ctrl.numWrHitClean                       0                       # stat (Unspecified)
system.mem_ctrl.power_state.pwrStateResidencyTicks::UNDEFINED  10000000000                       # Cumulative time (in ticks) in various power states (Tick)
system.workload.inst.arm                            0                       # number of arm instructions executed (Count)
system.workload.inst.quiesce                        0                       # number of quiesce instructions executed (Count)

---------- End Simulation Statistics   ----------
