
---------- Begin Simulation Statistics ----------
simSeconds                                          5                       # Number of seconds simulated (Second)
simTicks                                 5000000000000                       # Number of ticks simulated (Tick)
finalTick                                25110775139500                       # Number of ticks from beginning of simulation (restored from checkpoints and never reset) (Tick)
simFreq                                  1000000000000                       # The number of ticks per simulated second ((Tick/Second))
hostSeconds                                  14140.12                       # Real time elapsed on the host (Second)
hostTickRate                                353603830                       # The number of ticks simulated per host second (ticks/s) ((Tick/Second))
hostMemory                                   15705988                       # Number of bytes of host memory used (Byte)
simInsts                                  50966583728                       # Number of instructions simulated (Count)
simOps                                    52518193237                       # Number of ops (including micro ops) simulated (Count)
hostInstRate                                  3604396                       # Simulator instruction rate (inst/s) ((Count/Second))
hostOpRate                                    3714127                       # Simulator op (including micro ops) rate (op/s) ((Count/Second))
system.atomicCpu0.numCycles                         0                       # Number of cpu cycles simulated (Cycle)
system.atomicCpu0.numWorkItemsStarted               0                       # Number of work items this cpu started (Count)
system.atomicCpu0.numWorkItemsCompleted             0                       # Number of work items this cpu completed (Count)
system.atomicCpu0.exec_context.thread_0.numInsts            0                       # Number of instructions committed (Count)
system.atomicCpu0.exec_context.thread_0.numOps            0                       # Number of ops (including micro ops) committed (Count)
system.atomicCpu0.exec_context.thread_0.numIntAluAccesses            0                       # Number of integer alu accesses (Count)
system.atomicCpu0.exec_context.thread_0.numFpAluAccesses            0                       # Number of float alu accesses (Count)
system.atomicCpu0.exec_context.thread_0.numVecAluAccesses            0                       # Number of vector alu accesses (Count)
system.atomicCpu0.exec_context.thread_0.numCallsReturns            0                       # Number of times a function call or return occured (Count)
system.atomicCpu0.exec_context.thread_0.numCondCtrlInsts            0                       # Number of instructions that are conditional controls (Count)
system.atomicCpu0.exec_context.thread_0.numIntInsts            0                       # Number of integer instructions (Count)
system.atomicCpu0.exec_context.thread_0.numFpInsts            0                       # Number of float instructions (Count)
system.atomicCpu0.exec_context.thread_0.numVecInsts            0                       # Number of vector instructions (Count)
system.atomicCpu0.exec_context.thread_0.numIntRegReads            0                       # Number of times the integer registers were read (Count)
system.atomicCpu0.exec_context.thread_0.numIntRegWrites            0                       # Number of times the integer registers were written (Count)
system.atomicCpu0.exec_context.thread_0.numFpRegReads            0                       # Number of times the floating registers were read (Count)
system.atomicCpu0.exec_context.thread_0.numFpRegWrites            0                       # Number of times the floating registers were written (Count)
system.atomicCpu0.exec_context.thread_0.numVecRegReads            0                       # Number of times the vector registers were read (Count)
system.atomicCpu0.exec_context.thread_0.numVecRegWrites            0                       # Number of times the vector registers were written (Count)
system.atomicCpu0.exec_context.thread_0.numVecPredRegReads            0                       # Number of times the predicate registers were read (Count)
system.atomicCpu0.exec_context.thread_0.numVecPredRegWrites            0                       # Number of times the predicate registers were written (Count)
system.atomicCpu0.exec_context.thread_0.numMiscRegReads            0                       # Number of times the Misc registers were read (Count)
system.atomicCpu0.exec_context.thread_0.numMiscRegWrites            0                       # Number of times the Misc registers were written (Count)
system.atomicCpu0.exec_context.thread_0.numMemRefs            0                       # Number of memory refs (Count)
system.atomicCpu0.exec_context.thread_0.numLoadInsts            0                       # Number of load instructions (Count)
system.atomicCpu0.exec_context.thread_0.numStoreInsts            0                       # Number of store instructions (Count)
system.atomicCpu0.exec_context.thread_0.numIdleCycles            0                       # Number of idle cycles (Cycle)
system.atomicCpu0.exec_context.thread_0.numBusyCycles            0                       # Number of busy cycles (Cycle)
system.atomicCpu0.exec_context.thread_0.notIdleFraction            0                       # Percentage of non-idle cycles (Ratio)
system.atomicCpu0.exec_context.thread_0.idleFraction            1                       # Percentage of idle cycles (Ratio)
system.atomicCpu0.exec_context.thread_0.statExecutedInstType::No_OpClass            0                       # Class of executed instruction. (Count)
system.atomicCpu0.exec_context.thread_0.statExecutedInstType::IntAlu            0                       # Class of executed instruction. (Count)
system.atomicCpu0.exec_context.thread_0.statExecutedInstType::IntMult            0                       # Class of executed instruction. (Count)
system.atomicCpu0.exec_context.thread_0.statExecutedInstType::IntDiv            0                       # Class of executed instruction. (Count)
system.atomicCpu0.exec_context.thread_0.statExecutedInstType::FloatAdd            0                       # Class of executed instruction. (Count)
system.atomicCpu0.exec_context.thread_0.statExecutedInstType::FloatCmp            0                       # Class of executed instruction. (Count)
system.atomicCpu0.exec_context.thread_0.statExecutedInstType::FloatCvt            0                       # Class of executed instruction. (Count)
system.atomicCpu0.exec_context.thread_0.statExecutedInstType::FloatMult            0                       # Class of executed instruction. (Count)
system.atomicCpu0.exec_context.thread_0.statExecutedInstType::FloatMultAcc            0                       # Class of executed instruction. (Count)
system.atomicCpu0.exec_context.thread_0.statExecutedInstType::FloatDiv            0                       # Class of executed instruction. (Count)
system.atomicCpu0.exec_context.thread_0.statExecutedInstType::FloatMisc            0                       # Class of executed instruction. (Count)
system.atomicCpu0.exec_context.thread_0.statExecutedInstType::FloatSqrt            0                       # Class of executed instruction. (Count)
system.atomicCpu0.exec_context.thread_0.statExecutedInstType::SimdAdd            0                       # Class of executed instruction. (Count)
system.atomicCpu0.exec_context.thread_0.statExecutedInstType::SimdAddAcc            0                       # Class of executed instruction. (Count)
system.atomicCpu0.exec_context.thread_0.statExecutedInstType::SimdAlu            0                       # Class of executed instruction. (Count)
system.atomicCpu0.exec_context.thread_0.statExecutedInstType::SimdCmp            0                       # Class of executed instruction. (Count)
system.atomicCpu0.exec_context.thread_0.statExecutedInstType::SimdCvt            0                       # Class of executed instruction. (Count)
system.atomicCpu0.exec_context.thread_0.statExecutedInstType::SimdMisc            0                       # Class of executed instruction. (Count)
system.atomicCpu0.exec_context.thread_0.statExecutedInstType::SimdMult            0                       # Class of executed instruction. (Count)
system.atomicCpu0.exec_context.thread_0.statExecutedInstType::SimdMultAcc            0                       # Class of executed instruction. (Count)
system.atomicCpu0.exec_context.thread_0.statExecutedInstType::SimdShift            0                       # Class of executed instruction. (Count)
system.atomicCpu0.exec_context.thread_0.statExecutedInstType::SimdShiftAcc            0                       # Class of executed instruction. (Count)
system.atomicCpu0.exec_context.thread_0.statExecutedInstType::SimdDiv            0                       # Class of executed instruction. (Count)
system.atomicCpu0.exec_context.thread_0.statExecutedInstType::SimdSqrt            0                       # Class of executed instruction. (Count)
system.atomicCpu0.exec_context.thread_0.statExecutedInstType::SimdFloatAdd            0                       # Class of executed instruction. (Count)
system.atomicCpu0.exec_context.thread_0.statExecutedInstType::SimdFloatAlu            0                       # Class of executed instruction. (Count)
system.atomicCpu0.exec_context.thread_0.statExecutedInstType::SimdFloatCmp            0                       # Class of executed instruction. (Count)
system.atomicCpu0.exec_context.thread_0.statExecutedInstType::SimdFloatCvt            0                       # Class of executed instruction. (Count)
system.atomicCpu0.exec_context.thread_0.statExecutedInstType::SimdFloatDiv            0                       # Class of executed instruction. (Count)
system.atomicCpu0.exec_context.thread_0.statExecutedInstType::SimdFloatMisc            0                       # Class of executed instruction. (Count)
system.atomicCpu0.exec_context.thread_0.statExecutedInstType::SimdFloatMult            0                       # Class of executed instruction. (Count)
system.atomicCpu0.exec_context.thread_0.statExecutedInstType::SimdFloatMultAcc            0                       # Class of executed instruction. (Count)
system.atomicCpu0.exec_context.thread_0.statExecutedInstType::SimdFloatSqrt            0                       # Class of executed instruction. (Count)
system.atomicCpu0.exec_context.thread_0.statExecutedInstType::SimdReduceAdd            0                       # Class of executed instruction. (Count)
system.atomicCpu0.exec_context.thread_0.statExecutedInstType::SimdReduceAlu            0                       # Class of executed instruction. (Count)
system.atomicCpu0.exec_context.thread_0.statExecutedInstType::SimdReduceCmp            0                       # Class of executed instruction. (Count)
system.atomicCpu0.exec_context.thread_0.statExecutedInstType::SimdFloatReduceAdd            0                       # Class of executed instruction. (Count)
system.atomicCpu0.exec_context.thread_0.statExecutedInstType::SimdFloatReduceCmp            0                       # Class of executed instruction. (Count)
system.atomicCpu0.exec_context.thread_0.statExecutedInstType::SimdAes            0                       # Class of executed instruction. (Count)
system.atomicCpu0.exec_context.thread_0.statExecutedInstType::SimdAesMix            0                       # Class of executed instruction. (Count)
system.atomicCpu0.exec_context.thread_0.statExecutedInstType::SimdSha1Hash            0                       # Class of executed instruction. (Count)
system.atomicCpu0.exec_context.thread_0.statExecutedInstType::SimdSha1Hash2            0                       # Class of executed instruction. (Count)
system.atomicCpu0.exec_context.thread_0.statExecutedInstType::SimdSha256Hash            0                       # Class of executed instruction. (Count)
system.atomicCpu0.exec_context.thread_0.statExecutedInstType::SimdSha256Hash2            0                       # Class of executed instruction. (Count)
system.atomicCpu0.exec_context.thread_0.statExecutedInstType::SimdShaSigma2            0                       # Class of executed instruction. (Count)
system.atomicCpu0.exec_context.thread_0.statExecutedInstType::SimdShaSigma3            0                       # Class of executed instruction. (Count)
system.atomicCpu0.exec_context.thread_0.statExecutedInstType::SimdPredAlu            0                       # Class of executed instruction. (Count)
system.atomicCpu0.exec_context.thread_0.statExecutedInstType::MemRead            0                       # Class of executed instruction. (Count)
system.atomicCpu0.exec_context.thread_0.statExecutedInstType::MemWrite            0                       # Class of executed instruction. (Count)
system.atomicCpu0.exec_context.thread_0.statExecutedInstType::FloatMemRead            0                       # Class of executed instruction. (Count)
system.atomicCpu0.exec_context.thread_0.statExecutedInstType::FloatMemWrite            0                       # Class of executed instruction. (Count)
system.atomicCpu0.exec_context.thread_0.statExecutedInstType::IprAccess            0                       # Class of executed instruction. (Count)
system.atomicCpu0.exec_context.thread_0.statExecutedInstType::InstPrefetch            0                       # Class of executed instruction. (Count)
system.atomicCpu0.exec_context.thread_0.statExecutedInstType::total            0                       # Class of executed instruction. (Count)
system.atomicCpu0.mmu.dtb.rdAccesses                0                       # TLB accesses on read requests (Count)
system.atomicCpu0.mmu.dtb.wrAccesses                0                       # TLB accesses on write requests (Count)
system.atomicCpu0.mmu.dtb.rdMisses                  0                       # TLB misses on read requests (Count)
system.atomicCpu0.mmu.dtb.wrMisses                  0                       # TLB misses on write requests (Count)
system.atomicCpu0.mmu.dtb.walker.power_state.pwrStateResidencyTicks::UNDEFINED 25110775139500                       # Cumulative time (in ticks) in various power states (Tick)
system.atomicCpu0.mmu.itb.rdAccesses                0                       # TLB accesses on read requests (Count)
system.atomicCpu0.mmu.itb.wrAccesses                0                       # TLB accesses on write requests (Count)
system.atomicCpu0.mmu.itb.rdMisses                  0                       # TLB misses on read requests (Count)
system.atomicCpu0.mmu.itb.wrMisses                  0                       # TLB misses on write requests (Count)
system.atomicCpu0.mmu.itb.walker.power_state.pwrStateResidencyTicks::UNDEFINED 25110775139500                       # Cumulative time (in ticks) in various power states (Tick)
system.atomicCpu0.power_state.pwrStateResidencyTicks::OFF 25110775139500                       # Cumulative time (in ticks) in various power states (Tick)
system.atomicCpu0.thread_0.numInsts                 0                       # Number of Instructions committed (Count)
system.atomicCpu0.thread_0.numOps                   0                       # Number of Ops committed (Count)
system.atomicCpu0.thread_0.numMemRefs               0                       # Number of Memory References (Count)
system.atomicCpu1.numCycles                         0                       # Number of cpu cycles simulated (Cycle)
system.atomicCpu1.numWorkItemsStarted               0                       # Number of work items this cpu started (Count)
system.atomicCpu1.numWorkItemsCompleted             0                       # Number of work items this cpu completed (Count)
system.atomicCpu1.exec_context.thread_0.numInsts            0                       # Number of instructions committed (Count)
system.atomicCpu1.exec_context.thread_0.numOps            0                       # Number of ops (including micro ops) committed (Count)
system.atomicCpu1.exec_context.thread_0.numIntAluAccesses            0                       # Number of integer alu accesses (Count)
system.atomicCpu1.exec_context.thread_0.numFpAluAccesses            0                       # Number of float alu accesses (Count)
system.atomicCpu1.exec_context.thread_0.numVecAluAccesses            0                       # Number of vector alu accesses (Count)
system.atomicCpu1.exec_context.thread_0.numCallsReturns            0                       # Number of times a function call or return occured (Count)
system.atomicCpu1.exec_context.thread_0.numCondCtrlInsts            0                       # Number of instructions that are conditional controls (Count)
system.atomicCpu1.exec_context.thread_0.numIntInsts            0                       # Number of integer instructions (Count)
system.atomicCpu1.exec_context.thread_0.numFpInsts            0                       # Number of float instructions (Count)
system.atomicCpu1.exec_context.thread_0.numVecInsts            0                       # Number of vector instructions (Count)
system.atomicCpu1.exec_context.thread_0.numIntRegReads            0                       # Number of times the integer registers were read (Count)
system.atomicCpu1.exec_context.thread_0.numIntRegWrites            0                       # Number of times the integer registers were written (Count)
system.atomicCpu1.exec_context.thread_0.numFpRegReads            0                       # Number of times the floating registers were read (Count)
system.atomicCpu1.exec_context.thread_0.numFpRegWrites            0                       # Number of times the floating registers were written (Count)
system.atomicCpu1.exec_context.thread_0.numVecRegReads            0                       # Number of times the vector registers were read (Count)
system.atomicCpu1.exec_context.thread_0.numVecRegWrites            0                       # Number of times the vector registers were written (Count)
system.atomicCpu1.exec_context.thread_0.numVecPredRegReads            0                       # Number of times the predicate registers were read (Count)
system.atomicCpu1.exec_context.thread_0.numVecPredRegWrites            0                       # Number of times the predicate registers were written (Count)
system.atomicCpu1.exec_context.thread_0.numMiscRegReads            0                       # Number of times the Misc registers were read (Count)
system.atomicCpu1.exec_context.thread_0.numMiscRegWrites            0                       # Number of times the Misc registers were written (Count)
system.atomicCpu1.exec_context.thread_0.numMemRefs            0                       # Number of memory refs (Count)
system.atomicCpu1.exec_context.thread_0.numLoadInsts            0                       # Number of load instructions (Count)
system.atomicCpu1.exec_context.thread_0.numStoreInsts            0                       # Number of store instructions (Count)
system.atomicCpu1.exec_context.thread_0.numIdleCycles            0                       # Number of idle cycles (Cycle)
system.atomicCpu1.exec_context.thread_0.numBusyCycles            0                       # Number of busy cycles (Cycle)
system.atomicCpu1.exec_context.thread_0.notIdleFraction            0                       # Percentage of non-idle cycles (Ratio)
system.atomicCpu1.exec_context.thread_0.idleFraction            1                       # Percentage of idle cycles (Ratio)
system.atomicCpu1.exec_context.thread_0.statExecutedInstType::No_OpClass            0                       # Class of executed instruction. (Count)
system.atomicCpu1.exec_context.thread_0.statExecutedInstType::IntAlu            0                       # Class of executed instruction. (Count)
system.atomicCpu1.exec_context.thread_0.statExecutedInstType::IntMult            0                       # Class of executed instruction. (Count)
system.atomicCpu1.exec_context.thread_0.statExecutedInstType::IntDiv            0                       # Class of executed instruction. (Count)
system.atomicCpu1.exec_context.thread_0.statExecutedInstType::FloatAdd            0                       # Class of executed instruction. (Count)
system.atomicCpu1.exec_context.thread_0.statExecutedInstType::FloatCmp            0                       # Class of executed instruction. (Count)
system.atomicCpu1.exec_context.thread_0.statExecutedInstType::FloatCvt            0                       # Class of executed instruction. (Count)
system.atomicCpu1.exec_context.thread_0.statExecutedInstType::FloatMult            0                       # Class of executed instruction. (Count)
system.atomicCpu1.exec_context.thread_0.statExecutedInstType::FloatMultAcc            0                       # Class of executed instruction. (Count)
system.atomicCpu1.exec_context.thread_0.statExecutedInstType::FloatDiv            0                       # Class of executed instruction. (Count)
system.atomicCpu1.exec_context.thread_0.statExecutedInstType::FloatMisc            0                       # Class of executed instruction. (Count)
system.atomicCpu1.exec_context.thread_0.statExecutedInstType::FloatSqrt            0                       # Class of executed instruction. (Count)
system.atomicCpu1.exec_context.thread_0.statExecutedInstType::SimdAdd            0                       # Class of executed instruction. (Count)
system.atomicCpu1.exec_context.thread_0.statExecutedInstType::SimdAddAcc            0                       # Class of executed instruction. (Count)
system.atomicCpu1.exec_context.thread_0.statExecutedInstType::SimdAlu            0                       # Class of executed instruction. (Count)
system.atomicCpu1.exec_context.thread_0.statExecutedInstType::SimdCmp            0                       # Class of executed instruction. (Count)
system.atomicCpu1.exec_context.thread_0.statExecutedInstType::SimdCvt            0                       # Class of executed instruction. (Count)
system.atomicCpu1.exec_context.thread_0.statExecutedInstType::SimdMisc            0                       # Class of executed instruction. (Count)
system.atomicCpu1.exec_context.thread_0.statExecutedInstType::SimdMult            0                       # Class of executed instruction. (Count)
system.atomicCpu1.exec_context.thread_0.statExecutedInstType::SimdMultAcc            0                       # Class of executed instruction. (Count)
system.atomicCpu1.exec_context.thread_0.statExecutedInstType::SimdShift            0                       # Class of executed instruction. (Count)
system.atomicCpu1.exec_context.thread_0.statExecutedInstType::SimdShiftAcc            0                       # Class of executed instruction. (Count)
system.atomicCpu1.exec_context.thread_0.statExecutedInstType::SimdDiv            0                       # Class of executed instruction. (Count)
system.atomicCpu1.exec_context.thread_0.statExecutedInstType::SimdSqrt            0                       # Class of executed instruction. (Count)
system.atomicCpu1.exec_context.thread_0.statExecutedInstType::SimdFloatAdd            0                       # Class of executed instruction. (Count)
system.atomicCpu1.exec_context.thread_0.statExecutedInstType::SimdFloatAlu            0                       # Class of executed instruction. (Count)
system.atomicCpu1.exec_context.thread_0.statExecutedInstType::SimdFloatCmp            0                       # Class of executed instruction. (Count)
system.atomicCpu1.exec_context.thread_0.statExecutedInstType::SimdFloatCvt            0                       # Class of executed instruction. (Count)
system.atomicCpu1.exec_context.thread_0.statExecutedInstType::SimdFloatDiv            0                       # Class of executed instruction. (Count)
system.atomicCpu1.exec_context.thread_0.statExecutedInstType::SimdFloatMisc            0                       # Class of executed instruction. (Count)
system.atomicCpu1.exec_context.thread_0.statExecutedInstType::SimdFloatMult            0                       # Class of executed instruction. (Count)
system.atomicCpu1.exec_context.thread_0.statExecutedInstType::SimdFloatMultAcc            0                       # Class of executed instruction. (Count)
system.atomicCpu1.exec_context.thread_0.statExecutedInstType::SimdFloatSqrt            0                       # Class of executed instruction. (Count)
system.atomicCpu1.exec_context.thread_0.statExecutedInstType::SimdReduceAdd            0                       # Class of executed instruction. (Count)
system.atomicCpu1.exec_context.thread_0.statExecutedInstType::SimdReduceAlu            0                       # Class of executed instruction. (Count)
system.atomicCpu1.exec_context.thread_0.statExecutedInstType::SimdReduceCmp            0                       # Class of executed instruction. (Count)
system.atomicCpu1.exec_context.thread_0.statExecutedInstType::SimdFloatReduceAdd            0                       # Class of executed instruction. (Count)
system.atomicCpu1.exec_context.thread_0.statExecutedInstType::SimdFloatReduceCmp            0                       # Class of executed instruction. (Count)
system.atomicCpu1.exec_context.thread_0.statExecutedInstType::SimdAes            0                       # Class of executed instruction. (Count)
system.atomicCpu1.exec_context.thread_0.statExecutedInstType::SimdAesMix            0                       # Class of executed instruction. (Count)
system.atomicCpu1.exec_context.thread_0.statExecutedInstType::SimdSha1Hash            0                       # Class of executed instruction. (Count)
system.atomicCpu1.exec_context.thread_0.statExecutedInstType::SimdSha1Hash2            0                       # Class of executed instruction. (Count)
system.atomicCpu1.exec_context.thread_0.statExecutedInstType::SimdSha256Hash            0                       # Class of executed instruction. (Count)
system.atomicCpu1.exec_context.thread_0.statExecutedInstType::SimdSha256Hash2            0                       # Class of executed instruction. (Count)
system.atomicCpu1.exec_context.thread_0.statExecutedInstType::SimdShaSigma2            0                       # Class of executed instruction. (Count)
system.atomicCpu1.exec_context.thread_0.statExecutedInstType::SimdShaSigma3            0                       # Class of executed instruction. (Count)
system.atomicCpu1.exec_context.thread_0.statExecutedInstType::SimdPredAlu            0                       # Class of executed instruction. (Count)
system.atomicCpu1.exec_context.thread_0.statExecutedInstType::MemRead            0                       # Class of executed instruction. (Count)
system.atomicCpu1.exec_context.thread_0.statExecutedInstType::MemWrite            0                       # Class of executed instruction. (Count)
system.atomicCpu1.exec_context.thread_0.statExecutedInstType::FloatMemRead            0                       # Class of executed instruction. (Count)
system.atomicCpu1.exec_context.thread_0.statExecutedInstType::FloatMemWrite            0                       # Class of executed instruction. (Count)
system.atomicCpu1.exec_context.thread_0.statExecutedInstType::IprAccess            0                       # Class of executed instruction. (Count)
system.atomicCpu1.exec_context.thread_0.statExecutedInstType::InstPrefetch            0                       # Class of executed instruction. (Count)
system.atomicCpu1.exec_context.thread_0.statExecutedInstType::total            0                       # Class of executed instruction. (Count)
system.atomicCpu1.mmu.dtb.rdAccesses                0                       # TLB accesses on read requests (Count)
system.atomicCpu1.mmu.dtb.wrAccesses                0                       # TLB accesses on write requests (Count)
system.atomicCpu1.mmu.dtb.rdMisses                  0                       # TLB misses on read requests (Count)
system.atomicCpu1.mmu.dtb.wrMisses                  0                       # TLB misses on write requests (Count)
system.atomicCpu1.mmu.dtb.walker.power_state.pwrStateResidencyTicks::UNDEFINED 25110775139500                       # Cumulative time (in ticks) in various power states (Tick)
system.atomicCpu1.mmu.itb.rdAccesses                0                       # TLB accesses on read requests (Count)
system.atomicCpu1.mmu.itb.wrAccesses                0                       # TLB accesses on write requests (Count)
system.atomicCpu1.mmu.itb.rdMisses                  0                       # TLB misses on read requests (Count)
system.atomicCpu1.mmu.itb.wrMisses                  0                       # TLB misses on write requests (Count)
system.atomicCpu1.mmu.itb.walker.power_state.pwrStateResidencyTicks::UNDEFINED 25110775139500                       # Cumulative time (in ticks) in various power states (Tick)
system.atomicCpu1.power_state.pwrStateResidencyTicks::OFF 25110775139500                       # Cumulative time (in ticks) in various power states (Tick)
system.atomicCpu1.thread_0.numInsts                 0                       # Number of Instructions committed (Count)
system.atomicCpu1.thread_0.numOps                   0                       # Number of Ops committed (Count)
system.atomicCpu1.thread_0.numMemRefs               0                       # Number of Memory References (Count)
system.caches.delayHistogram::bucket_size           64                       # delay histogram for all message (Unspecified)
system.caches.delayHistogram::max_bucket          639                       # delay histogram for all message (Unspecified)
system.caches.delayHistogram::samples       404995327                       # delay histogram for all message (Unspecified)
system.caches.delayHistogram::mean           0.383701                       # delay histogram for all message (Unspecified)
system.caches.delayHistogram::stdev          1.714079                       # delay histogram for all message (Unspecified)
system.caches.delayHistogram             |   404995224    100.00%    100.00% |         101      0.00%    100.00% |           0      0.00%    100.00% |           0      0.00%    100.00% |           0      0.00%    100.00% |           1      0.00%    100.00% |           0      0.00%    100.00% |           0      0.00%    100.00% |           1      0.00%    100.00% |           0      0.00%    100.00% # delay histogram for all message (Unspecified)
system.caches.delayHistogram::total         404995327                       # delay histogram for all message (Unspecified)
system.caches.m_outstandReqHistSeqr::bucket_size            1                       (Unspecified)
system.caches.m_outstandReqHistSeqr::max_bucket            9                       (Unspecified)
system.caches.m_outstandReqHistSeqr::samples   5311522427                       (Unspecified)
system.caches.m_outstandReqHistSeqr::mean     1.000000                       (Unspecified)
system.caches.m_outstandReqHistSeqr::gmean     1.000000                       (Unspecified)
system.caches.m_outstandReqHistSeqr::stdev     0.000082                       (Unspecified)
system.caches.m_outstandReqHistSeqr      |           0      0.00%      0.00% |  5311522391    100.00%    100.00% |          36      0.00%    100.00% |           0      0.00%    100.00% |           0      0.00%    100.00% |           0      0.00%    100.00% |           0      0.00%    100.00% |           0      0.00%    100.00% |           0      0.00%    100.00% |           0      0.00%    100.00% (Unspecified)
system.caches.m_outstandReqHistSeqr::total   5311522427                       (Unspecified)
system.caches.m_latencyHistSeqr::bucket_size          512                       (Unspecified)
system.caches.m_latencyHistSeqr::max_bucket         5119                       (Unspecified)
system.caches.m_latencyHistSeqr::samples   5311522425                       (Unspecified)
system.caches.m_latencyHistSeqr::mean        6.522207                       (Unspecified)
system.caches.m_latencyHistSeqr::gmean       1.067098                       (Unspecified)
system.caches.m_latencyHistSeqr::stdev      62.119470                       (Unspecified)
system.caches.m_latencyHistSeqr          |  5283982920     99.48%     99.48% |    25972403      0.49%     99.97% |      514731      0.01%     99.98% |      806041      0.02%    100.00% |      241275      0.00%    100.00% |        5012      0.00%    100.00% |          43      0.00%    100.00% |           0      0.00%    100.00% |           0      0.00%    100.00% |           0      0.00%    100.00% (Unspecified)
system.caches.m_latencyHistSeqr::total     5311522425                       (Unspecified)
system.caches.m_hitLatencyHistSeqr::bucket_size            1                       (Unspecified)
system.caches.m_hitLatencyHistSeqr::max_bucket            9                       (Unspecified)
system.caches.m_hitLatencyHistSeqr::samples   5250276860                       (Unspecified)
system.caches.m_hitLatencyHistSeqr::mean            1                       (Unspecified)
system.caches.m_hitLatencyHistSeqr::gmean            1                       (Unspecified)
system.caches.m_hitLatencyHistSeqr       |           0      0.00%      0.00% |  5250276860    100.00%    100.00% |           0      0.00%    100.00% |           0      0.00%    100.00% |           0      0.00%    100.00% |           0      0.00%    100.00% |           0      0.00%    100.00% |           0      0.00%    100.00% |           0      0.00%    100.00% |           0      0.00%    100.00% (Unspecified)
system.caches.m_hitLatencyHistSeqr::total   5250276860                       (Unspecified)
system.caches.m_missLatencyHistSeqr::bucket_size          512                       (Unspecified)
system.caches.m_missLatencyHistSeqr::max_bucket         5119                       (Unspecified)
system.caches.m_missLatencyHistSeqr::samples     61245565                       (Unspecified)
system.caches.m_missLatencyHistSeqr::mean   479.913510                       (Unspecified)
system.caches.m_missLatencyHistSeqr::gmean   279.270194                       (Unspecified)
system.caches.m_missLatencyHistSeqr::stdev   328.547506                       (Unspecified)
system.caches.m_missLatencyHistSeqr      |    33706060     55.03%     55.03% |    25972403     42.41%     97.44% |      514731      0.84%     98.28% |      806041      1.32%     99.60% |      241275      0.39%     99.99% |        5012      0.01%    100.00% |          43      0.00%    100.00% |           0      0.00%    100.00% |           0      0.00%    100.00% |           0      0.00%    100.00% (Unspecified)
system.caches.m_missLatencyHistSeqr::total     61245565                       (Unspecified)
system.caches.delayVCHist.vnet_0::bucket_size           64                       # delay histogram for vnet_0 (Unspecified)
system.caches.delayVCHist.vnet_0::max_bucket          639                       # delay histogram for vnet_0 (Unspecified)
system.caches.delayVCHist.vnet_0::samples    182511108                       # delay histogram for vnet_0 (Unspecified)
system.caches.delayVCHist.vnet_0::mean       0.850671                       # delay histogram for vnet_0 (Unspecified)
system.caches.delayVCHist.vnet_0::stdev      2.473587                       # delay histogram for vnet_0 (Unspecified)
system.caches.delayVCHist.vnet_0         |   182511005    100.00%    100.00% |         101      0.00%    100.00% |           0      0.00%    100.00% |           0      0.00%    100.00% |           0      0.00%    100.00% |           1      0.00%    100.00% |           0      0.00%    100.00% |           0      0.00%    100.00% |           1      0.00%    100.00% |           0      0.00%    100.00% # delay histogram for vnet_0 (Unspecified)
system.caches.delayVCHist.vnet_0::total     182511108                       # delay histogram for vnet_0 (Unspecified)
system.caches.delayVCHist.vnet_1::bucket_size            2                       # delay histogram for vnet_1 (Unspecified)
system.caches.delayVCHist.vnet_1::max_bucket           19                       # delay histogram for vnet_1 (Unspecified)
system.caches.delayVCHist.vnet_1::samples    222198689                       # delay histogram for vnet_1 (Unspecified)
system.caches.delayVCHist.vnet_1::mean       0.000632                       # delay histogram for vnet_1 (Unspecified)
system.caches.delayVCHist.vnet_1::stdev      0.057664                       # delay histogram for vnet_1 (Unspecified)
system.caches.delayVCHist.vnet_1         |   222166866     99.99%     99.99% |        9027      0.00%     99.99% |       10487      0.00%     99.99% |        9040      0.00%    100.00% |        3265      0.00%    100.00% |           3      0.00%    100.00% |           0      0.00%    100.00% |           0      0.00%    100.00% |           0      0.00%    100.00% |           1      0.00%    100.00% # delay histogram for vnet_1 (Unspecified)
system.caches.delayVCHist.vnet_1::total     222198689                       # delay histogram for vnet_1 (Unspecified)
system.caches.delayVCHist.vnet_2::bucket_size            1                       # delay histogram for vnet_2 (Unspecified)
system.caches.delayVCHist.vnet_2::max_bucket            9                       # delay histogram for vnet_2 (Unspecified)
system.caches.delayVCHist.vnet_2::samples       285530                       # delay histogram for vnet_2 (Unspecified)
system.caches.delayVCHist.vnet_2::mean       0.000126                       # delay histogram for vnet_2 (Unspecified)
system.caches.delayVCHist.vnet_2::stdev      0.015879                       # delay histogram for vnet_2 (Unspecified)
system.caches.delayVCHist.vnet_2         |      285512     99.99%     99.99% |           0      0.00%     99.99% |          18      0.01%    100.00% |           0      0.00%    100.00% |           0      0.00%    100.00% |           0      0.00%    100.00% |           0      0.00%    100.00% |           0      0.00%    100.00% |           0      0.00%    100.00% |           0      0.00%    100.00% # delay histogram for vnet_2 (Unspecified)
system.caches.delayVCHist.vnet_2::total        285530                       # delay histogram for vnet_2 (Unspecified)
system.caches.L1Cache_Controller.Load    |   478109896     50.10%     50.10% |   476167466     49.90%    100.00% (Unspecified)
system.caches.L1Cache_Controller.Load::total    954277362                       (Unspecified)
system.caches.L1Cache_Controller.Ifetch  |  2059738059     50.07%     50.07% |  2053922732     49.93%    100.00% (Unspecified)
system.caches.L1Cache_Controller.Ifetch::total   4113660791                       (Unspecified)
system.caches.L1Cache_Controller.Store   |   122463857     50.28%     50.28% |   121120417     49.72%    100.00% (Unspecified)
system.caches.L1Cache_Controller.Store::total    243584274                       (Unspecified)
system.caches.L1Cache_Controller.Inv     |      116829     47.64%     47.64% |      128420     52.36%    100.00% (Unspecified)
system.caches.L1Cache_Controller.Inv::total       245249                       (Unspecified)
system.caches.L1Cache_Controller.L1_Replacement |    30551331     50.10%     50.10% |    30424136     49.90%    100.00% (Unspecified)
system.caches.L1Cache_Controller.L1_Replacement::total     60975467                       (Unspecified)
system.caches.L1Cache_Controller.Fwd_GETX |          79      7.30%      7.30% |        1003     92.70%    100.00% (Unspecified)
system.caches.L1Cache_Controller.Fwd_GETX::total         1082                       (Unspecified)
system.caches.L1Cache_Controller.Fwd_GETS |       35280     90.00%     90.00% |        3919     10.00%    100.00% (Unspecified)
system.caches.L1Cache_Controller.Fwd_GETS::total        39199                       (Unspecified)
system.caches.L1Cache_Controller.Data    |        3165     99.94%     99.94% |           2      0.06%    100.00% (Unspecified)
system.caches.L1Cache_Controller.Data::total         3167                       (Unspecified)
system.caches.L1Cache_Controller.Data_Exclusive |    27451217     50.04%     50.04% |    27405526     49.96%    100.00% (Unspecified)
system.caches.L1Cache_Controller.Data_Exclusive::total     54856743                       (Unspecified)
system.caches.L1Cache_Controller.DataS_fromL1 |        3919     10.00%     10.00% |       35280     90.00%    100.00% (Unspecified)
system.caches.L1Cache_Controller.DataS_fromL1::total        39199                       (Unspecified)
system.caches.L1Cache_Controller.Data_all_Acks |     3206220     50.77%     50.77% |     3108788     49.23%    100.00% (Unspecified)
system.caches.L1Cache_Controller.Data_all_Acks::total      6315008                       (Unspecified)
system.caches.L1Cache_Controller.Ack     |       31078     98.82%     98.82% |         370      1.18%    100.00% (Unspecified)
system.caches.L1Cache_Controller.Ack::total        31448                       (Unspecified)
system.caches.L1Cache_Controller.Ack_all |       34243     98.93%     98.93% |         372      1.07%    100.00% (Unspecified)
system.caches.L1Cache_Controller.Ack_all::total        34615                       (Unspecified)
system.caches.L1Cache_Controller.WB_Ack  |    30303380     50.03%     50.03% |    30262754     49.97%    100.00% (Unspecified)
system.caches.L1Cache_Controller.WB_Ack::total     60566134                       (Unspecified)
system.caches.L1Cache_Controller.NP.Load |    27494917     50.04%     50.04% |    27453312     49.96%    100.00% (Unspecified)
system.caches.L1Cache_Controller.NP.Load::total     54948229                       (Unspecified)
system.caches.L1Cache_Controller.NP.Ifetch |      184173     64.90%     64.90% |       99593     35.10%    100.00% (Unspecified)
system.caches.L1Cache_Controller.NP.Ifetch::total       283766                       (Unspecified)
system.caches.L1Cache_Controller.NP.Store |     2880945     50.01%     50.01% |     2879935     49.99%    100.00% (Unspecified)
system.caches.L1Cache_Controller.NP.Store::total      5760880                       (Unspecified)
system.caches.L1Cache_Controller.NP.Inv  |        5546     48.33%     48.33% |        5930     51.67%    100.00% (Unspecified)
system.caches.L1Cache_Controller.NP.Inv::total        11476                       (Unspecified)
system.caches.L1Cache_Controller.I.Load  |       18552     29.11%     29.11% |       45188     70.89%    100.00% (Unspecified)
system.caches.L1Cache_Controller.I.Load::total        63740                       (Unspecified)
system.caches.L1Cache_Controller.I.Ifetch |       79039     54.00%     54.00% |       67328     46.00%    100.00% (Unspecified)
system.caches.L1Cache_Controller.I.Ifetch::total       146367                       (Unspecified)
system.caches.L1Cache_Controller.I.Store |        6896     61.92%     61.92% |        4241     38.08%    100.00% (Unspecified)
system.caches.L1Cache_Controller.I.Store::total        11137                       (Unspecified)
system.caches.L1Cache_Controller.I.L1_Replacement |        6553     50.66%     50.66% |        6382     49.34%    100.00% (Unspecified)
system.caches.L1Cache_Controller.I.L1_Replacement::total        12935                       (Unspecified)
system.caches.L1Cache_Controller.S.Load  |     1038659     45.25%     45.25% |     1256940     54.75%    100.00% (Unspecified)
system.caches.L1Cache_Controller.S.Load::total      2295599                       (Unspecified)
system.caches.L1Cache_Controller.S.Ifetch |  2059474847     50.07%     50.07% |  2053755811     49.93%    100.00% (Unspecified)
system.caches.L1Cache_Controller.S.Ifetch::total   4113230658                       (Unspecified)
system.caches.L1Cache_Controller.S.Store |       31078     98.82%     98.82% |         370      1.18%    100.00% (Unspecified)
system.caches.L1Cache_Controller.S.Store::total        31448                       (Unspecified)
system.caches.L1Cache_Controller.S.Inv   |       88008     44.85%     44.85% |      108208     55.15%    100.00% (Unspecified)
system.caches.L1Cache_Controller.S.Inv::total       196216                       (Unspecified)
system.caches.L1Cache_Controller.S.L1_Replacement |      241398     60.90%     60.90% |      155000     39.10%    100.00% (Unspecified)
system.caches.L1Cache_Controller.S.L1_Replacement::total       396398                       (Unspecified)
system.caches.L1Cache_Controller.E.Load  |   303031392     49.56%     49.56% |   308353635     50.44%    100.00% (Unspecified)
system.caches.L1Cache_Controller.E.Load::total    611385027                       (Unspecified)
system.caches.L1Cache_Controller.E.Store |     6756946     50.04%     50.04% |     6745231     49.96%    100.00% (Unspecified)
system.caches.L1Cache_Controller.E.Store::total     13502177                       (Unspecified)
system.caches.L1Cache_Controller.E.Inv   |       11780     61.62%     61.62% |        7336     38.38%    100.00% (Unspecified)
system.caches.L1Cache_Controller.E.Inv::total        19116                       (Unspecified)
system.caches.L1Cache_Controller.E.L1_Replacement |    20674201     50.04%     50.04% |    20641564     49.96%    100.00% (Unspecified)
system.caches.L1Cache_Controller.E.L1_Replacement::total     41315765                       (Unspecified)
system.caches.L1Cache_Controller.E.Fwd_GETX |           5      0.51%      0.51% |         979     99.49%    100.00% (Unspecified)
system.caches.L1Cache_Controller.E.Fwd_GETX::total          984                       (Unspecified)
system.caches.L1Cache_Controller.E.Fwd_GETS |        1539     29.56%     29.56% |        3668     70.44%    100.00% (Unspecified)
system.caches.L1Cache_Controller.E.Fwd_GETS::total         5207                       (Unspecified)
system.caches.L1Cache_Controller.M.Load  |   146526376     51.31%     51.31% |   139058391     48.69%    100.00% (Unspecified)
system.caches.L1Cache_Controller.M.Load::total    285584767                       (Unspecified)
system.caches.L1Cache_Controller.M.Store |   112787992     50.29%     50.29% |   111490640     49.71%    100.00% (Unspecified)
system.caches.L1Cache_Controller.M.Store::total    224278632                       (Unspecified)
system.caches.L1Cache_Controller.M.Inv   |       11495     62.35%     62.35% |        6940     37.65%    100.00% (Unspecified)
system.caches.L1Cache_Controller.M.Inv::total        18435                       (Unspecified)
system.caches.L1Cache_Controller.M.L1_Replacement |     9629179     50.02%     50.02% |     9621190     49.98%    100.00% (Unspecified)
system.caches.L1Cache_Controller.M.L1_Replacement::total     19250369                       (Unspecified)
system.caches.L1Cache_Controller.M.Fwd_GETX |          74     75.51%     75.51% |          24     24.49%    100.00% (Unspecified)
system.caches.L1Cache_Controller.M.Fwd_GETX::total           98                       (Unspecified)
system.caches.L1Cache_Controller.M.Fwd_GETS |       33741     99.26%     99.26% |         251      0.74%    100.00% (Unspecified)
system.caches.L1Cache_Controller.M.Fwd_GETS::total        33992                       (Unspecified)
system.caches.L1Cache_Controller.IS.Inv  |           0      0.00%      0.00% |           6    100.00%    100.00% (Unspecified)
system.caches.L1Cache_Controller.IS.Inv::total            6                       (Unspecified)
system.caches.L1Cache_Controller.IS.Data_Exclusive |    27451217     50.04%     50.04% |    27405526     49.96%    100.00% (Unspecified)
system.caches.L1Cache_Controller.IS.Data_Exclusive::total     54856743                       (Unspecified)
system.caches.L1Cache_Controller.IS.DataS_fromL1 |        3919     10.00%     10.00% |       35274     90.00%    100.00% (Unspecified)
system.caches.L1Cache_Controller.IS.DataS_fromL1::total        39193                       (Unspecified)
system.caches.L1Cache_Controller.IS.Data_all_Acks |      321544     58.87%     58.87% |      224614     41.13%    100.00% (Unspecified)
system.caches.L1Cache_Controller.IS.Data_all_Acks::total       546158                       (Unspecified)
system.caches.L1Cache_Controller.IM.Data |        3165     99.94%     99.94% |           2      0.06%    100.00% (Unspecified)
system.caches.L1Cache_Controller.IM.Data::total         3167                       (Unspecified)
system.caches.L1Cache_Controller.IM.Data_all_Acks |     2884676     50.00%     50.00% |     2884174     50.00%    100.00% (Unspecified)
system.caches.L1Cache_Controller.IM.Data_all_Acks::total      5768850                       (Unspecified)
system.caches.L1Cache_Controller.SM.Ack  |       31078     98.82%     98.82% |         370      1.18%    100.00% (Unspecified)
system.caches.L1Cache_Controller.SM.Ack::total        31448                       (Unspecified)
system.caches.L1Cache_Controller.SM.Ack_all |       34243     98.93%     98.93% |         372      1.07%    100.00% (Unspecified)
system.caches.L1Cache_Controller.SM.Ack_all::total        34615                       (Unspecified)
system.caches.L1Cache_Controller.IS_I.DataS_fromL1 |           0      0.00%      0.00% |           6    100.00%    100.00% (Unspecified)
system.caches.L1Cache_Controller.IS_I.DataS_fromL1::total            6                       (Unspecified)
system.caches.L1Cache_Controller.M_I.WB_Ack |    30303380     50.03%     50.03% |    30262754     49.97%    100.00% (Unspecified)
system.caches.L1Cache_Controller.M_I.WB_Ack::total     60566134                       (Unspecified)
system.caches.Directory_Controller.Fetch     50115621      0.00%      0.00% (Unspecified)
system.caches.Directory_Controller.Data      14049219      0.00%      0.00% (Unspecified)
system.caches.Directory_Controller.Memory_Data     50115647      0.00%      0.00% (Unspecified)
system.caches.Directory_Controller.Memory_Ack     14049219      0.00%      0.00% (Unspecified)
system.caches.Directory_Controller.DMA_READ         2402      0.00%      0.00% (Unspecified)
system.caches.Directory_Controller.CleanReplacement     35935330      0.00%      0.00% (Unspecified)
system.caches.Directory_Controller.I.Fetch     50115621      0.00%      0.00% (Unspecified)
system.caches.Directory_Controller.I.DMA_READ           28      0.00%      0.00% (Unspecified)
system.caches.Directory_Controller.ID.Memory_Data           28      0.00%      0.00% (Unspecified)
system.caches.Directory_Controller.M.Data     14046845      0.00%      0.00% (Unspecified)
system.caches.Directory_Controller.M.DMA_READ         2374      0.00%      0.00% (Unspecified)
system.caches.Directory_Controller.M.CleanReplacement     35935330      0.00%      0.00% (Unspecified)
system.caches.Directory_Controller.IM.Memory_Data     50115619      0.00%      0.00% (Unspecified)
system.caches.Directory_Controller.MI.Memory_Ack     14046845      0.00%      0.00% (Unspecified)
system.caches.Directory_Controller.M_DRD.Data         2374      0.00%      0.00% (Unspecified)
system.caches.Directory_Controller.M_DRDI.Memory_Ack         2374      0.00%      0.00% (Unspecified)
system.caches.DMA_Controller.ReadRequest |        2402    100.00%    100.00% |           0      0.00%    100.00% (Unspecified)
system.caches.DMA_Controller.ReadRequest::total         2402                       (Unspecified)
system.caches.DMA_Controller.Data        |        2402    100.00%    100.00% |           0      0.00%    100.00% (Unspecified)
system.caches.DMA_Controller.Data::total         2402                       (Unspecified)
system.caches.DMA_Controller.READY.ReadRequest |        2402    100.00%    100.00% |           0      0.00%    100.00% (Unspecified)
system.caches.DMA_Controller.READY.ReadRequest::total         2402                       (Unspecified)
system.caches.DMA_Controller.BUSY_RD.Data |        2402    100.00%    100.00% |           0      0.00%    100.00% (Unspecified)
system.caches.DMA_Controller.BUSY_RD.Data::total         2402                       (Unspecified)
system.caches.L2Cache_Controller.L1_GET_INSTR |       30463      7.08%      7.08% |       71426     16.60%     23.68% |       63989     14.87%     38.56% |       20324      4.72%     43.28% |       46702     10.86%     54.14% |       59911     13.93%     68.06% |       69402     16.13%     84.19% |       67999     15.81%    100.00% (Unspecified)
system.caches.L2Cache_Controller.L1_GET_INSTR::total       430216                       (Unspecified)
system.caches.L2Cache_Controller.L1_GETS |     6894620     12.53%     12.53% |     6880830     12.50%     25.03% |     6874621     12.49%     37.53% |     6869573     12.48%     50.01% |     6871933     12.49%     62.50% |     6863608     12.47%     74.98% |     6896760     12.53%     87.51% |     6873210     12.49%    100.00% (Unspecified)
system.caches.L2Cache_Controller.L1_GETS::total     55025155                       (Unspecified)
system.caches.L2Cache_Controller.L1_GETX |      725685     12.57%     12.57% |      721548     12.50%     25.07% |      717379     12.43%     37.50% |      719492     12.47%     49.97% |      718161     12.44%     62.41% |      727271     12.60%     75.01% |      720521     12.48%     87.49% |      722022     12.51%    100.00% (Unspecified)
system.caches.L2Cache_Controller.L1_GETX::total      5772079                       (Unspecified)
system.caches.L2Cache_Controller.L1_UPGRADE |        5700     13.40%     13.40% |        4074      9.58%     22.97% |          48      0.11%     23.09% |          31      0.07%     23.16% |         120      0.28%     23.44% |          40      0.09%     23.54% |       32411     76.18%     99.72% |         119      0.28%    100.00% (Unspecified)
system.caches.L2Cache_Controller.L1_UPGRADE::total        42543                       (Unspecified)
system.caches.L2Cache_Controller.L1_PUTX |     7569982     12.50%     12.50% |     7573438     12.50%     25.00% |     7568458     12.50%     37.50% |     7570625     12.50%     50.00% |     7570701     12.50%     62.50% |     7574255     12.51%     75.00% |     7569460     12.50%     87.50% |     7569215     12.50%    100.00% (Unspecified)
system.caches.L2Cache_Controller.L1_PUTX::total     60566134                       (Unspecified)
system.caches.L2Cache_Controller.L2_Replacement |     1754530     12.50%     12.50% |     1754618     12.50%     25.00% |     1754288     12.50%     37.50% |     1754066     12.50%     50.00% |     1754428     12.50%     62.50% |     1754914     12.50%     75.00% |     1754534     12.50%     87.50% |     1754786     12.50%    100.00% (Unspecified)
system.caches.L2Cache_Controller.L2_Replacement::total     14036164                       (Unspecified)
system.caches.L2Cache_Controller.L2_Replacement_clean |     4494102     12.50%     12.50% |     4495888     12.51%     25.01% |     4492960     12.50%     37.51% |     4492221     12.50%     50.01% |     4492940     12.50%     62.51% |     4493199     12.50%     75.01% |     4491329     12.49%     87.50% |     4493372     12.50%    100.00% (Unspecified)
system.caches.L2Cache_Controller.L2_Replacement_clean::total     35946011                       (Unspecified)
system.caches.L2Cache_Controller.Mem_Data |     6265314     12.50%     12.50% |     6267187     12.51%     25.01% |     6263928     12.50%     37.51% |     6262968     12.50%     50.00% |     6264048     12.50%     62.50% |     6264793     12.50%     75.00% |     6262543     12.50%     87.50% |     6264838     12.50%    100.00% (Unspecified)
system.caches.L2Cache_Controller.Mem_Data::total     50115619                       (Unspecified)
system.caches.L2Cache_Controller.Mem_Ack |     6248931     12.50%     12.50% |     6250803     12.51%     25.01% |     6247545     12.50%     37.51% |     6246584     12.50%     50.00% |     6247664     12.50%     62.50% |     6248409     12.50%     75.00% |     6246159     12.50%     87.50% |     6248454     12.50%    100.00% (Unspecified)
system.caches.L2Cache_Controller.Mem_Ack::total     49984549                       (Unspecified)
system.caches.L2Cache_Controller.WB_Data |       10563     20.15%     20.15% |        5966     11.38%     31.53% |        1401      2.67%     34.20% |        2362      4.51%     38.71% |        2023      3.86%     42.56% |        3664      6.99%     49.55% |       23974     45.73%     95.28% |        2474      4.72%    100.00% (Unspecified)
system.caches.L2Cache_Controller.WB_Data::total        52427                       (Unspecified)
system.caches.L2Cache_Controller.WB_Data_clean |         833     16.00%     16.00% |        1161     22.30%     38.29% |         696     13.37%     51.66% |         561     10.77%     62.44% |         606     11.64%     74.07% |         360      6.91%     80.99% |         278      5.34%     86.33% |         712     13.67%    100.00% (Unspecified)
system.caches.L2Cache_Controller.WB_Data_clean::total         5207                       (Unspecified)
system.caches.L2Cache_Controller.Ack     |       10783     14.37%     14.37% |        9875     13.16%     27.53% |        8744     11.65%     39.18% |        8303     11.07%     50.25% |        9900     13.19%     63.44% |        9678     12.90%     76.34% |        8470     11.29%     87.63% |        9285     12.37%    100.00% (Unspecified)
system.caches.L2Cache_Controller.Ack::total        75038                       (Unspecified)
system.caches.L2Cache_Controller.Ack_all |       15447     13.18%     13.18% |       17006     14.52%     27.70% |       14600     12.46%     40.16% |       13789     11.77%     51.93% |       14825     12.65%     64.58% |       13888     11.85%     76.44% |       12787     10.91%     87.35% |       14819     12.65%    100.00% (Unspecified)
system.caches.L2Cache_Controller.Ack_all::total       117161                       (Unspecified)
system.caches.L2Cache_Controller.Unblock |        9079     23.16%     23.16% |        4597     11.73%     34.89% |         745      1.90%     36.79% |         591      1.51%     38.30% |         745      1.90%     40.20% |         404      1.03%     41.23% |       22199     56.63%     97.86% |         839      2.14%    100.00% (Unspecified)
system.caches.L2Cache_Controller.Unblock::total        39199                       (Unspecified)
system.caches.L2Cache_Controller.Exclusive_Unblock |     7585681     12.51%     12.51% |     7586362     12.51%     25.01% |     7575618     12.49%     37.50% |     7578350     12.49%     49.99% |     7577916     12.49%     62.49% |     7582136     12.50%     74.99% |     7597980     12.53%     87.51% |     7576165     12.49%    100.00% (Unspecified)
system.caches.L2Cache_Controller.Exclusive_Unblock::total     60660208                       (Unspecified)
system.caches.L2Cache_Controller.MEM_Inv |         598     12.59%     12.59% |         594     12.51%     25.11% |         594     12.51%     37.62% |         594     12.51%     50.13% |         592     12.47%     62.59% |         592     12.47%     75.06% |         592     12.47%     87.53% |         592     12.47%    100.00% (Unspecified)
system.caches.L2Cache_Controller.MEM_Inv::total         4748                       (Unspecified)
system.caches.L2Cache_Controller.NP.L1_GET_INSTR |       12656     13.91%     13.91% |       12377     13.60%     27.51% |       10407     11.44%     38.95% |       10258     11.27%     50.23% |       11435     12.57%     62.80% |       11457     12.59%     75.39% |       10291     11.31%     86.70% |       12100     13.30%    100.00% (Unspecified)
system.caches.L2Cache_Controller.NP.L1_GET_INSTR::total        90981                       (Unspecified)
system.caches.L2Cache_Controller.NP.L1_GETS |     5536913     12.50%     12.50% |     5539312     12.50%     25.00% |     5538990     12.50%     37.50% |     5537862     12.50%     50.00% |     5537833     12.50%     62.50% |     5537010     12.50%     75.00% |     5537160     12.50%     87.50% |     5537309     12.50%    100.00% (Unspecified)
system.caches.L2Cache_Controller.NP.L1_GETS::total     44302389                       (Unspecified)
system.caches.L2Cache_Controller.NP.L1_GETX |      715746     12.51%     12.51% |      715498     12.50%     25.01% |      714532     12.49%     37.50% |      714848     12.49%     49.99% |      714780     12.49%     62.48% |      716326     12.52%     75.00% |      715092     12.50%     87.50% |      715429     12.50%    100.00% (Unspecified)
system.caches.L2Cache_Controller.NP.L1_GETX::total      5722251                       (Unspecified)
system.caches.L2Cache_Controller.SS.L1_GET_INSTR |       13916      4.45%      4.45% |       55193     17.63%     22.08% |       50626     16.18%     38.26% |        6968      2.23%     40.48% |       31850     10.18%     50.66% |       45113     14.41%     65.07% |       56356     18.01%     83.08% |       52964     16.92%    100.00% (Unspecified)
system.caches.L2Cache_Controller.SS.L1_GET_INSTR::total       312986                       (Unspecified)
system.caches.L2Cache_Controller.SS.L1_GETS |       29916     27.07%     27.07% |       14648     13.25%     40.32% |       14622     13.23%     53.55% |        9627      8.71%     62.26% |       11017      9.97%     72.23% |        7788      7.05%     79.28% |        5229      4.73%     84.01% |       17672     15.99%    100.00% (Unspecified)
system.caches.L2Cache_Controller.SS.L1_GETS::total       110519                       (Unspecified)
system.caches.L2Cache_Controller.SS.L1_GETX |        2541     80.23%     80.23% |           3      0.09%     80.33% |           3      0.09%     80.42% |           1      0.03%     80.45% |          12      0.38%     80.83% |           1      0.03%     80.87% |         603     19.04%     99.91% |           3      0.09%    100.00% (Unspecified)
system.caches.L2Cache_Controller.SS.L1_GETX::total         3167                       (Unspecified)
system.caches.L2Cache_Controller.SS.L1_UPGRADE |        5699     18.12%     18.12% |        4074     12.95%     31.08% |          48      0.15%     31.23% |          31      0.10%     31.33% |         120      0.38%     31.71% |          40      0.13%     31.84% |       21317     67.78%     99.62% |         119      0.38%    100.00% (Unspecified)
system.caches.L2Cache_Controller.SS.L1_UPGRADE::total        31448                       (Unspecified)
system.caches.L2Cache_Controller.SS.L2_Replacement |          14     17.50%     17.50% |          11     13.75%     31.25% |           8     10.00%     41.25% |           6      7.50%     48.75% |          16     20.00%     68.75% |          11     13.75%     82.50% |           6      7.50%     90.00% |           8     10.00%    100.00% (Unspecified)
system.caches.L2Cache_Controller.SS.L2_Replacement::total           80                       (Unspecified)
system.caches.L2Cache_Controller.SS.L2_Replacement_clean |       14089     14.38%     14.38% |       13255     13.53%     27.91% |       11565     11.81%     39.72% |       11026     11.26%     50.97% |       12258     12.51%     63.48% |       12066     12.32%     75.80% |       10613     10.83%     86.64% |       13093     13.36%    100.00% (Unspecified)
system.caches.L2Cache_Controller.SS.L2_Replacement_clean::total        97965                       (Unspecified)
system.caches.L2Cache_Controller.M.L1_GETS |     1318043     12.48%     12.48% |     1321839     12.52%     25.01% |     1319715     12.50%     37.51% |     1321214     12.51%     50.02% |     1322066     12.52%     62.54% |     1318104     12.49%     75.03% |     1319070     12.49%     87.52% |     1317058     12.48%    100.00% (Unspecified)
system.caches.L2Cache_Controller.M.L1_GETS::total     10557109                       (Unspecified)
system.caches.L2Cache_Controller.M.L1_GETX |        6448     14.17%     14.17% |        6012     13.21%     27.37% |        2830      6.22%     33.59% |        4621     10.15%     43.74% |        3362      7.39%     51.13% |       10935     24.02%     75.15% |        4756     10.45%     85.60% |        6553     14.40%    100.00% (Unspecified)
system.caches.L2Cache_Controller.M.L1_GETX::total        45517                       (Unspecified)
system.caches.L2Cache_Controller.M.L2_Replacement |     1753518     12.50%     12.50% |     1753575     12.50%     25.00% |     1753853     12.50%     37.50% |     1753151     12.50%     50.00% |     1753543     12.50%     62.50% |     1753392     12.50%     75.00% |     1753661     12.50%     87.50% |     1753691     12.50%    100.00% (Unspecified)
system.caches.L2Cache_Controller.M.L2_Replacement::total     14028384                       (Unspecified)
system.caches.L2Cache_Controller.M.L2_Replacement_clean |     4477616     12.50%     12.50% |     4477658     12.50%     25.00% |     4477707     12.50%     37.50% |     4477280     12.50%     50.00% |     4477379     12.50%     62.50% |     4477477     12.50%     75.00% |     4477626     12.50%     87.50% |     4477564     12.50%    100.00% (Unspecified)
system.caches.L2Cache_Controller.M.L2_Replacement_clean::total     35820307                       (Unspecified)
system.caches.L2Cache_Controller.M.MEM_Inv |          33     12.60%     12.60% |          34     12.98%     25.57% |          33     12.60%     38.17% |          32     12.21%     50.38% |          33     12.60%     62.98% |          32     12.21%     75.19% |          32     12.21%     87.40% |          33     12.60%    100.00% (Unspecified)
system.caches.L2Cache_Controller.M.MEM_Inv::total          262                       (Unspecified)
system.caches.L2Cache_Controller.MT.L1_GETS |        9079     23.16%     23.16% |        4597     11.73%     34.89% |         745      1.90%     36.79% |         591      1.51%     38.30% |         745      1.90%     40.20% |         404      1.03%     41.23% |       22199     56.63%     97.86% |         839      2.14%    100.00% (Unspecified)
system.caches.L2Cache_Controller.MT.L1_GETS::total        39199                       (Unspecified)
system.caches.L2Cache_Controller.MT.L1_GETX |         941     86.97%     86.97% |          30      2.77%     89.74% |          11      1.02%     90.76% |          11      1.02%     91.77% |           2      0.18%     91.96% |           9      0.83%     92.79% |          60      5.55%     98.34% |          18      1.66%    100.00% (Unspecified)
system.caches.L2Cache_Controller.MT.L1_GETX::total         1082                       (Unspecified)
system.caches.L2Cache_Controller.MT.L1_PUTX |     7569982     12.50%     12.50% |     7573438     12.50%     25.00% |     7568458     12.50%     37.50% |     7570625     12.50%     50.00% |     7570701     12.50%     62.50% |     7574255     12.51%     75.00% |     7569460     12.50%     87.50% |     7569215     12.50%    100.00% (Unspecified)
system.caches.L2Cache_Controller.MT.L1_PUTX::total     60566134                       (Unspecified)
system.caches.L2Cache_Controller.MT.L2_Replacement |         998     12.96%     12.96% |        1032     13.40%     26.36% |         427      5.55%     31.91% |         909     11.81%     43.71% |         869     11.29%     55.00% |        1511     19.62%     74.62% |         867     11.26%     85.88% |        1087     14.12%    100.00% (Unspecified)
system.caches.L2Cache_Controller.MT.L2_Replacement::total         7700                       (Unspecified)
system.caches.L2Cache_Controller.MT.L2_Replacement_clean |        2397      8.64%      8.64% |        4975     17.94%     26.58% |        3688     13.30%     39.87% |        3915     14.11%     53.99% |        3303     11.91%     65.89% |        3656     13.18%     79.07% |        3090     11.14%     90.21% |        2715      9.79%    100.00% (Unspecified)
system.caches.L2Cache_Controller.MT.L2_Replacement_clean::total        27739                       (Unspecified)
system.caches.L2Cache_Controller.MT.MEM_Inv |         266     12.59%     12.59% |         263     12.45%     25.05% |         264     12.50%     37.55% |         265     12.55%     50.09% |         263     12.45%     62.55% |         264     12.50%     75.05% |         264     12.50%     87.55% |         263     12.45%    100.00% (Unspecified)
system.caches.L2Cache_Controller.MT.MEM_Inv::total         2112                       (Unspecified)
system.caches.L2Cache_Controller.M_I.L1_GET_INSTR |          11     13.25%     13.25% |           9     10.84%     24.10% |          15     18.07%     42.17% |          17     20.48%     62.65% |          10     12.05%     74.70% |           3      3.61%     78.31% |           4      4.82%     83.13% |          14     16.87%    100.00% (Unspecified)
system.caches.L2Cache_Controller.M_I.L1_GET_INSTR::total           83                       (Unspecified)
system.caches.L2Cache_Controller.M_I.L1_GETS |          10      7.81%      7.81% |          21     16.41%     24.22% |          37     28.91%     53.12% |          37     28.91%     82.03% |           5      3.91%     85.94% |          11      8.59%     94.53% |           3      2.34%     96.88% |           4      3.12%    100.00% (Unspecified)
system.caches.L2Cache_Controller.M_I.L1_GETS::total          128                       (Unspecified)
system.caches.L2Cache_Controller.M_I.L1_GETX |           9     15.00%     15.00% |           3      5.00%     20.00% |           3      5.00%     25.00% |          11     18.33%     43.33% |           5      8.33%     51.67% |           0      0.00%     51.67% |          10     16.67%     68.33% |          19     31.67%    100.00% (Unspecified)
system.caches.L2Cache_Controller.M_I.L1_GETX::total           60                       (Unspecified)
system.caches.L2Cache_Controller.M_I.Mem_Ack |     6248931     12.50%     12.50% |     6250803     12.51%     25.01% |     6247545     12.50%     37.51% |     6246584     12.50%     50.00% |     6247664     12.50%     62.50% |     6248409     12.50%     75.00% |     6246159     12.50%     87.50% |     6248454     12.50%    100.00% (Unspecified)
system.caches.L2Cache_Controller.M_I.Mem_Ack::total     49984549                       (Unspecified)
system.caches.L2Cache_Controller.M_I.MEM_Inv |          33     12.60%     12.60% |          34     12.98%     25.57% |          33     12.60%     38.17% |          32     12.21%     50.38% |          33     12.60%     62.98% |          32     12.21%     75.19% |          32     12.21%     87.40% |          33     12.60%    100.00% (Unspecified)
system.caches.L2Cache_Controller.M_I.MEM_Inv::total          262                       (Unspecified)
system.caches.L2Cache_Controller.MT_I.WB_Data |        1006     12.97%     12.97% |        1040     13.41%     26.39% |         438      5.65%     32.04% |         922     11.89%     43.93% |         882     11.37%     55.30% |        1516     19.55%     74.85% |         855     11.03%     85.88% |        1095     14.12%    100.00% (Unspecified)
system.caches.L2Cache_Controller.MT_I.WB_Data::total         7754                       (Unspecified)
system.caches.L2Cache_Controller.MT_I.Ack_all |         258     12.54%     12.54% |         255     12.39%     24.93% |         253     12.29%     37.22% |         252     12.24%     49.47% |         250     12.15%     61.61% |         259     12.59%     74.20% |         276     13.41%     87.61% |         255     12.39%    100.00% (Unspecified)
system.caches.L2Cache_Controller.MT_I.Ack_all::total         2058                       (Unspecified)
system.caches.L2Cache_Controller.MT_I.MEM_Inv |         266     12.59%     12.59% |         263     12.45%     25.05% |         264     12.50%     37.55% |         265     12.55%     50.09% |         263     12.45%     62.55% |         264     12.50%     75.05% |         264     12.50%     87.55% |         263     12.45%    100.00% (Unspecified)
system.caches.L2Cache_Controller.MT_I.MEM_Inv::total         2112                       (Unspecified)
system.caches.L2Cache_Controller.MCT_I.WB_Data |        1311     12.27%     12.27% |        1490     13.95%     26.22% |         914      8.56%     34.78% |        1410     13.20%     47.98% |        1002      9.38%     57.36% |        2104     19.70%     77.06% |        1198     11.22%     88.28% |        1252     11.72%    100.00% (Unspecified)
system.caches.L2Cache_Controller.MCT_I.WB_Data::total        10681                       (Unspecified)
system.caches.L2Cache_Controller.MCT_I.Ack_all |        1086      6.37%      6.37% |        3485     20.43%     26.80% |        2774     16.26%     43.06% |        2505     14.69%     57.74% |        2301     13.49%     71.23% |        1552      9.10%     80.33% |        1892     11.09%     91.42% |        1463      8.58%    100.00% (Unspecified)
system.caches.L2Cache_Controller.MCT_I.Ack_all::total        17058                       (Unspecified)
system.caches.L2Cache_Controller.I_I.Ack |       10769     14.37%     14.37% |        9864     13.16%     27.53% |        8736     11.65%     39.18% |        8297     11.07%     50.25% |        9884     13.19%     63.44% |        9667     12.90%     76.33% |        8464     11.29%     87.62% |        9277     12.38%    100.00% (Unspecified)
system.caches.L2Cache_Controller.I_I.Ack::total        74958                       (Unspecified)
system.caches.L2Cache_Controller.I_I.Ack_all |       14089     14.38%     14.38% |       13255     13.53%     27.91% |       11565     11.81%     39.72% |       11026     11.26%     50.97% |       12258     12.51%     63.48% |       12066     12.32%     75.80% |       10613     10.83%     86.64% |       13093     13.36%    100.00% (Unspecified)
system.caches.L2Cache_Controller.I_I.Ack_all::total        97965                       (Unspecified)
system.caches.L2Cache_Controller.S_I.Ack |          14     17.50%     17.50% |          11     13.75%     31.25% |           8     10.00%     41.25% |           6      7.50%     48.75% |          16     20.00%     68.75% |          11     13.75%     82.50% |           6      7.50%     90.00% |           8     10.00%    100.00% (Unspecified)
system.caches.L2Cache_Controller.S_I.Ack::total           80                       (Unspecified)
system.caches.L2Cache_Controller.S_I.Ack_all |          14     17.50%     17.50% |          11     13.75%     31.25% |           8     10.00%     41.25% |           6      7.50%     48.75% |          16     20.00%     68.75% |          11     13.75%     82.50% |           6      7.50%     90.00% |           8     10.00%    100.00% (Unspecified)
system.caches.L2Cache_Controller.S_I.Ack_all::total           80                       (Unspecified)
system.caches.L2Cache_Controller.ISS.L1_GETS |         649     23.57%     23.57% |         406     14.75%     38.32% |         510     18.53%     56.85% |         238      8.65%     65.49% |         259      9.41%     74.90% |         289     10.50%     85.40% |          78      2.83%     88.23% |         324     11.77%    100.00% (Unspecified)
system.caches.L2Cache_Controller.ISS.L1_GETS::total         2753                       (Unspecified)
system.caches.L2Cache_Controller.ISS.Mem_Data |     5536263     12.50%     12.50% |     5538906     12.50%     25.00% |     5538479     12.50%     37.50% |     5537624     12.50%     50.00% |     5537574     12.50%     62.50% |     5536721     12.50%     75.00% |     5537082     12.50%     87.50% |     5536985     12.50%    100.00% (Unspecified)
system.caches.L2Cache_Controller.ISS.Mem_Data::total     44299634                       (Unspecified)
system.caches.L2Cache_Controller.IS.L1_GET_INSTR |        3880     14.83%     14.83% |        3847     14.70%     29.53% |        2941     11.24%     40.77% |        3081     11.77%     52.55% |        3407     13.02%     65.57% |        3338     12.76%     78.32% |        2751     10.51%     88.84% |        2921     11.16%    100.00% (Unspecified)
system.caches.L2Cache_Controller.IS.L1_GET_INSTR::total        26166                       (Unspecified)
system.caches.L2Cache_Controller.IS.Mem_Data |       13305     14.19%     14.19% |       12783     13.64%     27.83% |       10917     11.65%     39.48% |       10496     11.20%     50.68% |       11694     12.48%     63.15% |       11746     12.53%     75.68% |       10369     11.06%     86.75% |       12424     13.25%    100.00% (Unspecified)
system.caches.L2Cache_Controller.IS.Mem_Data::total        93734                       (Unspecified)
system.caches.L2Cache_Controller.IM.L1_GETX |           0      0.00%      0.00% |           2    100.00%    100.00% |           0      0.00%    100.00% |           0      0.00%    100.00% |           0      0.00%    100.00% |           0      0.00%    100.00% |           0      0.00%    100.00% |           0      0.00%    100.00% (Unspecified)
system.caches.L2Cache_Controller.IM.L1_GETX::total            2                       (Unspecified)
system.caches.L2Cache_Controller.IM.Mem_Data |      715746     12.51%     12.51% |      715498     12.50%     25.01% |      714532     12.49%     37.50% |      714848     12.49%     49.99% |      714780     12.49%     62.48% |      716326     12.52%     75.00% |      715092     12.50%     87.50% |      715429     12.50%    100.00% (Unspecified)
system.caches.L2Cache_Controller.IM.Mem_Data::total      5722251                       (Unspecified)
system.caches.L2Cache_Controller.SS_MB.L1_GETS |           6      0.05%      0.05% |           0      0.00%      0.05% |           0      0.00%      0.05% |           0      0.00%      0.05% |           1      0.01%      0.05% |           0      0.00%      0.05% |       13018     99.95%    100.00% |           0      0.00%    100.00% (Unspecified)
system.caches.L2Cache_Controller.SS_MB.L1_GETS::total        13025                       (Unspecified)
system.caches.L2Cache_Controller.SS_MB.Exclusive_Unblock |        8240     23.80%     23.80% |        4077     11.78%     35.58% |          51      0.15%     35.73% |          32      0.09%     35.82% |         132      0.38%     36.20% |          41      0.12%     36.32% |       21920     63.33%     99.65% |         122      0.35%    100.00% (Unspecified)
system.caches.L2Cache_Controller.SS_MB.Exclusive_Unblock::total        34615                       (Unspecified)
system.caches.L2Cache_Controller.MT_MB.L1_GETS |           4     12.12%     12.12% |           7     21.21%     33.33% |           2      6.06%     39.39% |           4     12.12%     51.52% |           7     21.21%     72.73% |           2      6.06%     78.79% |           3      9.09%     87.88% |           4     12.12%    100.00% (Unspecified)
system.caches.L2Cache_Controller.MT_MB.L1_GETS::total           33                       (Unspecified)
system.caches.L2Cache_Controller.MT_MB.Exclusive_Unblock |     7577441     12.50%     12.50% |     7582285     12.51%     25.01% |     7575567     12.50%     37.50% |     7578318     12.50%     50.00% |     7577784     12.50%     62.50% |     7582095     12.51%     75.01% |     7576060     12.50%     87.50% |     7576043     12.50%    100.00% (Unspecified)
system.caches.L2Cache_Controller.MT_MB.Exclusive_Unblock::total     60625593                       (Unspecified)
system.caches.L2Cache_Controller.MT_IIB.WB_Data |        8246     24.26%     24.26% |        3436     10.11%     34.37% |          49      0.14%     34.51% |          30      0.09%     34.60% |         139      0.41%     35.01% |          44      0.13%     35.14% |       21921     64.49%     99.63% |         127      0.37%    100.00% (Unspecified)
system.caches.L2Cache_Controller.MT_IIB.WB_Data::total        33992                       (Unspecified)
system.caches.L2Cache_Controller.MT_IIB.WB_Data_clean |         833     16.00%     16.00% |        1161     22.30%     38.29% |         696     13.37%     51.66% |         561     10.77%     62.44% |         606     11.64%     74.07% |         360      6.91%     80.99% |         278      5.34%     86.33% |         712     13.67%    100.00% (Unspecified)
system.caches.L2Cache_Controller.MT_IIB.WB_Data_clean::total         5207                       (Unspecified)
[...]
system.timingCpu0.exec_context.thread_0.statExecutedInstType::FloatMemWrite    119094869      5.65%    100.00% # Class of executed instruction. (Count)
system.timingCpu0.exec_context.thread_0.statExecutedInstType::IprAccess            0      0.00%    100.00% # Class of executed instruction. (Count)
system.timingCpu0.exec_context.thread_0.statExecutedInstType::InstPrefetch            0      0.00%    100.00% # Class of executed instruction. (Count)
system.timingCpu0.exec_context.thread_0.statExecutedInstType::total   2108293363                       # Class of executed instruction. (Count)
system.timingCpu0.mmu.dtb.rdAccesses        477958065                       # TLB accesses on read requests (Count)
system.timingCpu0.mmu.dtb.wrAccesses        122158810                       # TLB accesses on write requests (Count)
system.timingCpu0.mmu.dtb.rdMisses             148179                       # TLB misses on read requests (Count)
system.timingCpu0.mmu.dtb.wrMisses              15831                       # TLB misses on write requests (Count)
system.timingCpu0.mmu.dtb.walker.power_state.pwrStateResidencyTicks::UNDEFINED 25110775139500                       # Cumulative time (in ticks) in various power states (Tick)
system.timingCpu0.mmu.itb.rdAccesses                0                       # TLB accesses on read requests (Count)
system.timingCpu0.mmu.itb.wrAccesses       2059745515                       # TLB accesses on write requests (Count)
system.timingCpu0.mmu.itb.rdMisses                  0                       # TLB misses on read requests (Count)
system.timingCpu0.mmu.itb.wrMisses               7456                       # TLB misses on write requests (Count)
system.timingCpu0.mmu.itb.walker.power_state.pwrStateResidencyTicks::UNDEFINED 25110775139500                       # Cumulative time (in ticks) in various power states (Tick)
system.timingCpu0.power_state.numTransitions           10                       # Number of power state transitions (Count)
system.timingCpu0.power_state.ticksClkGated::samples            5                       # Distribution of time spent in the clock gated state (Tick)
system.timingCpu0.power_state.ticksClkGated::mean    865451350                       # Distribution of time spent in the clock gated state (Tick)
system.timingCpu0.power_state.ticksClkGated::stdev 178211487.401170                       # Distribution of time spent in the clock gated state (Tick)
system.timingCpu0.power_state.ticksClkGated::1000-5e+10            5    100.00%    100.00% # Distribution of time spent in the clock gated state (Tick)
system.timingCpu0.power_state.ticksClkGated::min_value    626595000                       # Distribution of time spent in the clock gated state (Tick)
system.timingCpu0.power_state.ticksClkGated::max_value    997761000                       # Distribution of time spent in the clock gated state (Tick)
system.timingCpu0.power_state.ticksClkGated::total            5                       # Distribution of time spent in the clock gated state (Tick)
system.timingCpu0.power_state.pwrStateResidencyTicks::ON 3941168801250                       # Cumulative time (in ticks) in various power states (Tick)
system.timingCpu0.power_state.pwrStateResidencyTicks::CLK_GATED   4327256750                       # Cumulative time (in ticks) in various power states (Tick)
system.timingCpu0.power_state.pwrStateResidencyTicks::OFF 21165279081500                       # Cumulative time (in ticks) in various power states (Tick)
system.timingCpu0.thread_0.numInsts                 0                       # Number of Instructions committed (Count)
system.timingCpu0.thread_0.numOps                   0                       # Number of Ops committed (Count)
system.timingCpu0.thread_0.numMemRefs               0                       # Number of Memory References (Count)
system.timingCpu1.numCycles               19999999511                       # Number of cpu cycles simulated (Cycle)
system.timingCpu1.numWorkItemsStarted               0                       # Number of work items this cpu started (Count)
system.timingCpu1.numWorkItemsCompleted             0                       # Number of work items this cpu completed (Count)
system.timingCpu1.exec_context.thread_0.numInsts   1324412495                       # Number of instructions committed (Count)
system.timingCpu1.exec_context.thread_0.numOps   2096220797                       # Number of ops (including micro ops) committed (Count)
system.timingCpu1.exec_context.thread_0.numIntAluAccesses    768485423                       # Number of integer alu accesses (Count)
system.timingCpu1.exec_context.thread_0.numFpAluAccesses   1916538175                       # Number of float alu accesses (Count)
system.timingCpu1.exec_context.thread_0.numVecAluAccesses            0                       # Number of vector alu accesses (Count)
system.timingCpu1.exec_context.thread_0.numCallsReturns       774913                       # Number of times a function call or return occured (Count)
system.timingCpu1.exec_context.thread_0.numCondCtrlInsts     13720191                       # Number of instructions that are conditional controls (Count)
system.timingCpu1.exec_context.thread_0.numIntInsts    768485423                       # Number of integer instructions (Count)
system.timingCpu1.exec_context.thread_0.numFpInsts   1916538175                       # Number of float instructions (Count)
system.timingCpu1.exec_context.thread_0.numVecInsts            0                       # Number of vector instructions (Count)
system.timingCpu1.exec_context.thread_0.numIntRegReads    776158308                       # Number of times the integer registers were read (Count)
system.timingCpu1.exec_context.thread_0.numIntRegWrites    148652379                       # Number of times the integer registers were written (Count)
system.timingCpu1.exec_context.thread_0.numFpRegReads   3162213829                       # Number of times the floating registers were read (Count)
system.timingCpu1.exec_context.thread_0.numFpRegWrites   1797417702                       # Number of times the floating registers were written (Count)
system.timingCpu1.exec_context.thread_0.numVecRegReads            0                       # Number of times the vector registers were read (Count)
system.timingCpu1.exec_context.thread_0.numVecRegWrites            0                       # Number of times the vector registers were written (Count)
system.timingCpu1.exec_context.thread_0.numVecPredRegReads            0                       # Number of times the predicate registers were read (Count)
system.timingCpu1.exec_context.thread_0.numVecPredRegWrites            0                       # Number of times the predicate registers were written (Count)
system.timingCpu1.exec_context.thread_0.numCCRegReads     72725296                       # Number of times the CC registers were read (Count)
system.timingCpu1.exec_context.thread_0.numCCRegWrites    135002651                       # Number of times the CC registers were written (Count)
system.timingCpu1.exec_context.thread_0.numMiscRegReads    626757371                       # Number of times the Misc registers were read (Count)
system.timingCpu1.exec_context.thread_0.numMiscRegWrites       171817                       # Number of times the Misc registers were written (Count)
system.timingCpu1.exec_context.thread_0.numMemRefs    596732478                       # Number of memory refs (Count)
system.timingCpu1.exec_context.thread_0.numLoadInsts    475834048                       # Number of load instructions (Count)
system.timingCpu1.exec_context.thread_0.numStoreInsts    120898430                       # Number of store instructions (Count)
system.timingCpu1.exec_context.thread_0.numIdleCycles 24043831.412124                       # Number of idle cycles (Cycle)
system.timingCpu1.exec_context.thread_0.numBusyCycles 19975955679.587875                       # Number of busy cycles (Cycle)
system.timingCpu1.exec_context.thread_0.notIdleFraction     0.998798                       # Percentage of non-idle cycles (Ratio)
system.timingCpu1.exec_context.thread_0.idleFraction     0.001202                       # Percentage of idle cycles (Ratio)
system.timingCpu1.exec_context.thread_0.numBranches     14930407                       # Number of branches fetched (Count)
system.timingCpu1.exec_context.thread_0.statExecutedInstType::No_OpClass       123046      0.01%      0.01% # Class of executed instruction. (Count)
system.timingCpu1.exec_context.thread_0.statExecutedInstType::IntAlu    497784689     23.75%     23.75% # Class of executed instruction. (Count)
system.timingCpu1.exec_context.thread_0.statExecutedInstType::IntMult       116461      0.01%     23.76% # Class of executed instruction. (Count)
system.timingCpu1.exec_context.thread_0.statExecutedInstType::IntDiv       226221      0.01%     23.77% # Class of executed instruction. (Count)
system.timingCpu1.exec_context.thread_0.statExecutedInstType::FloatAdd    203772928      9.72%     33.49% # Class of executed instruction. (Count)
system.timingCpu1.exec_context.thread_0.statExecutedInstType::FloatCmp            0      0.00%     33.49% # Class of executed instruction. (Count)
system.timingCpu1.exec_context.thread_0.statExecutedInstType::FloatCvt          224      0.00%     33.49% # Class of executed instruction. (Count)
system.timingCpu1.exec_context.thread_0.statExecutedInstType::FloatMult            0      0.00%     33.49% # Class of executed instruction. (Count)
system.timingCpu1.exec_context.thread_0.statExecutedInstType::FloatMultAcc            0      0.00%     33.49% # Class of executed instruction. (Count)
system.timingCpu1.exec_context.thread_0.statExecutedInstType::FloatDiv            0      0.00%     33.49% # Class of executed instruction. (Count)
system.timingCpu1.exec_context.thread_0.statExecutedInstType::FloatMisc            0      0.00%     33.49% # Class of executed instruction. (Count)
system.timingCpu1.exec_context.thread_0.statExecutedInstType::FloatSqrt            0      0.00%     33.49% # Class of executed instruction. (Count)
system.timingCpu1.exec_context.thread_0.statExecutedInstType::SimdAdd            0      0.00%     33.49% # Class of executed instruction. (Count)
system.timingCpu1.exec_context.thread_0.statExecutedInstType::SimdAddAcc            0      0.00%     33.49% # Class of executed instruction. (Count)
system.timingCpu1.exec_context.thread_0.statExecutedInstType::SimdAlu            0      0.00%     33.49% # Class of executed instruction. (Count)
system.timingCpu1.exec_context.thread_0.statExecutedInstType::SimdCmp            0      0.00%     33.49% # Class of executed instruction. (Count)
system.timingCpu1.exec_context.thread_0.statExecutedInstType::SimdCvt            0      0.00%     33.49% # Class of executed instruction. (Count)
system.timingCpu1.exec_context.thread_0.statExecutedInstType::SimdMisc            0      0.00%     33.49% # Class of executed instruction. (Count)
system.timingCpu1.exec_context.thread_0.statExecutedInstType::SimdMult            0      0.00%     33.49% # Class of executed instruction. (Count)
system.timingCpu1.exec_context.thread_0.statExecutedInstType::SimdMultAcc            0      0.00%     33.49% # Class of executed instruction. (Count)
system.timingCpu1.exec_context.thread_0.statExecutedInstType::SimdShift            0      0.00%     33.49% # Class of executed instruction. (Count)
system.timingCpu1.exec_context.thread_0.statExecutedInstType::SimdShiftAcc            0      0.00%     33.49% # Class of executed instruction. (Count)
system.timingCpu1.exec_context.thread_0.statExecutedInstType::SimdDiv            0      0.00%     33.49% # Class of executed instruction. (Count)
system.timingCpu1.exec_context.thread_0.statExecutedInstType::SimdSqrt            0      0.00%     33.49% # Class of executed instruction. (Count)
system.timingCpu1.exec_context.thread_0.statExecutedInstType::SimdFloatAdd    472287534     22.53%     56.02% # Class of executed instruction. (Count)
system.timingCpu1.exec_context.thread_0.statExecutedInstType::SimdFloatAlu            0      0.00%     56.02% # Class of executed instruction. (Count)
system.timingCpu1.exec_context.thread_0.statExecutedInstType::SimdFloatCmp            0      0.00%     56.02% # Class of executed instruction. (Count)
system.timingCpu1.exec_context.thread_0.statExecutedInstType::SimdFloatCvt            0      0.00%     56.02% # Class of executed instruction. (Count)
system.timingCpu1.exec_context.thread_0.statExecutedInstType::SimdFloatDiv      2016740      0.10%     56.12% # Class of executed instruction. (Count)
system.timingCpu1.exec_context.thread_0.statExecutedInstType::SimdFloatMisc            0      0.00%     56.12% # Class of executed instruction. (Count)
system.timingCpu1.exec_context.thread_0.statExecutedInstType::SimdFloatMult    323160476     15.42%     71.53% # Class of executed instruction. (Count)
system.timingCpu1.exec_context.thread_0.statExecutedInstType::SimdFloatMultAcc            0      0.00%     71.53% # Class of executed instruction. (Count)
system.timingCpu1.exec_context.thread_0.statExecutedInstType::SimdFloatSqrt            0      0.00%     71.53% # Class of executed instruction. (Count)
system.timingCpu1.exec_context.thread_0.statExecutedInstType::SimdReduceAdd            0      0.00%     71.53% # Class of executed instruction. (Count)
system.timingCpu1.exec_context.thread_0.statExecutedInstType::SimdReduceAlu            0      0.00%     71.53% # Class of executed instruction. (Count)
system.timingCpu1.exec_context.thread_0.statExecutedInstType::SimdReduceCmp            0      0.00%     71.53% # Class of executed instruction. (Count)
system.timingCpu1.exec_context.thread_0.statExecutedInstType::SimdFloatReduceAdd            0      0.00%     71.53% # Class of executed instruction. (Count)
system.timingCpu1.exec_context.thread_0.statExecutedInstType::SimdFloatReduceCmp            0      0.00%     71.53% # Class of executed instruction. (Count)
system.timingCpu1.exec_context.thread_0.statExecutedInstType::SimdAes            0      0.00%     71.53% # Class of executed instruction. (Count)
system.timingCpu1.exec_context.thread_0.statExecutedInstType::SimdAesMix            0      0.00%     71.53% # Class of executed instruction. (Count)
system.timingCpu1.exec_context.thread_0.statExecutedInstType::SimdSha1Hash            0      0.00%     71.53% # Class of executed instruction. (Count)
system.timingCpu1.exec_context.thread_0.statExecutedInstType::SimdSha1Hash2            0      0.00%     71.53% # Class of executed instruction. (Count)
system.timingCpu1.exec_context.thread_0.statExecutedInstType::SimdSha256Hash            0      0.00%     71.53% # Class of executed instruction. (Count)
system.timingCpu1.exec_context.thread_0.statExecutedInstType::SimdSha256Hash2            0      0.00%     71.53% # Class of executed instruction. (Count)
system.timingCpu1.exec_context.thread_0.statExecutedInstType::SimdShaSigma2            0      0.00%     71.53% # Class of executed instruction. (Count)
system.timingCpu1.exec_context.thread_0.statExecutedInstType::SimdShaSigma3            0      0.00%     71.53% # Class of executed instruction. (Count)
system.timingCpu1.exec_context.thread_0.statExecutedInstType::SimdPredAlu            0      0.00%     71.53% # Class of executed instruction. (Count)
system.timingCpu1.exec_context.thread_0.statExecutedInstType::MemRead      5003577      0.24%     71.77% # Class of executed instruction. (Count)
system.timingCpu1.exec_context.thread_0.statExecutedInstType::MemWrite      1778181      0.08%     71.86% # Class of executed instruction. (Count)
system.timingCpu1.exec_context.thread_0.statExecutedInstType::FloatMemRead    470830471     22.46%     94.32% # Class of executed instruction. (Count)
system.timingCpu1.exec_context.thread_0.statExecutedInstType::FloatMemWrite    119120249      5.68%    100.00% # Class of executed instruction. (Count)
system.timingCpu1.exec_context.thread_0.statExecutedInstType::IprAccess            0      0.00%    100.00% # Class of executed instruction. (Count)
system.timingCpu1.exec_context.thread_0.statExecutedInstType::InstPrefetch            0      0.00%    100.00% # Class of executed instruction. (Count)
system.timingCpu1.exec_context.thread_0.statExecutedInstType::total   2096220797                       # Class of executed instruction. (Count)
system.timingCpu1.mmu.dtb.rdAccesses        475967856                       # TLB accesses on read requests (Count)
system.timingCpu1.mmu.dtb.wrAccesses        120914169                       # TLB accesses on write requests (Count)
system.timingCpu1.mmu.dtb.rdMisses             134100                       # TLB misses on read requests (Count)
system.timingCpu1.mmu.dtb.wrMisses              15876                       # TLB misses on write requests (Count)
system.timingCpu1.mmu.dtb.walker.power_state.pwrStateResidencyTicks::UNDEFINED 25110775139500                       # Cumulative time (in ticks) in various power states (Tick)
system.timingCpu1.mmu.itb.rdAccesses                0                       # TLB accesses on read requests (Count)
system.timingCpu1.mmu.itb.wrAccesses       2053929073                       # TLB accesses on write requests (Count)
system.timingCpu1.mmu.itb.rdMisses                  0                       # TLB misses on read requests (Count)
system.timingCpu1.mmu.itb.wrMisses               6341                       # TLB misses on write requests (Count)
system.timingCpu1.mmu.itb.walker.power_state.pwrStateResidencyTicks::UNDEFINED 25110775139500                       # Cumulative time (in ticks) in various power states (Tick)
system.timingCpu1.power_state.numTransitions           14                       # Number of power state transitions (Count)
system.timingCpu1.power_state.ticksClkGated::samples            7                       # Distribution of time spent in the clock gated state (Tick)
system.timingCpu1.power_state.ticksClkGated::mean 858708285.714286                       # Distribution of time spent in the clock gated state (Tick)
system.timingCpu1.power_state.ticksClkGated::stdev 268471284.383119                       # Distribution of time spent in the clock gated state (Tick)
system.timingCpu1.power_state.ticksClkGated::1000-5e+10            7    100.00%    100.00% # Distribution of time spent in the clock gated state (Tick)
system.timingCpu1.power_state.ticksClkGated::min_value    284447250                       # Distribution of time spent in the clock gated state (Tick)
system.timingCpu1.power_state.ticksClkGated::max_value    998138000                       # Distribution of time spent in the clock gated state (Tick)
system.timingCpu1.power_state.ticksClkGated::total            7                       # Distribution of time spent in the clock gated state (Tick)
system.timingCpu1.power_state.pwrStateResidencyTicks::ON 200048628750                       # Cumulative time (in ticks) in various power states (Tick)
system.timingCpu1.power_state.pwrStateResidencyTicks::CLK_GATED   6010958000                       # Cumulative time (in ticks) in various power states (Tick)
system.timingCpu1.power_state.pwrStateResidencyTicks::OFF 24904715552750                       # Cumulative time (in ticks) in various power states (Tick)
system.timingCpu1.thread_0.numInsts                 0                       # Number of Instructions committed (Count)
system.timingCpu1.thread_0.numOps                   0                       # Number of Ops committed (Count)
system.timingCpu1.thread_0.numMemRefs               0                       # Number of Memory References (Count)
system.workload.inst.arm                            0                       # number of arm instructions executed (Count)
system.workload.inst.quiesce                        0                       # number of quiesce instructions executed (Count)

---------- End Simulation Statistics   ----------
