
---------- Begin Simulation Statistics ----------
simSeconds                                   1.192751                       # Number of seconds simulated (Second)
simTicks                                 1192750988001                       # Number of ticks simulated (Tick)
finalTick                                161378243471001                       # Number of ticks from beginning of simulation (restored from checkpoints and never reset) (Tick)
simFreq                                  1000000000000                       # The number of ticks per simulated second ((Tick/Second))
hostSeconds                                   5390.65                       # Real time elapsed on the host (Second)
hostTickRate                                221262761                       # The number of ticks simulated per host second (ticks/s) ((Tick/Second))
hostMemory                                    7908852                       # Number of bytes of host memory used (Byte)
simInsts                                  39483195433                       # Number of instructions simulated (Count)
simOps                                    40192849537                       # Number of ops (including micro ops) simulated (Count)
hostInstRate                                  7324379                       # Simulator instruction rate (inst/s) ((Count/Second))
hostOpRate                                    7456024                       # Simulator op (including micro ops) rate (op/s) ((Count/Second))
system.work_item_type0::samples                     1                       # Run time stat forwork_item_type0 (Unspecified)
system.work_item_type0::mean             1192750988001                       # Run time stat forwork_item_type0 (Unspecified)
system.work_item_type0::gmean            1192750988000.998291                       # Run time stat forwork_item_type0 (Unspecified)
system.work_item_type0::stdev                     nan                       # Run time stat forwork_item_type0 (Unspecified)
system.work_item_type0::0-6.87195e+10               0      0.00%      0.00% # Run time stat forwork_item_type0 (Unspecified)
system.work_item_type0::6.87195e+10-1.37439e+11            0      0.00%      0.00% # Run time stat forwork_item_type0 (Unspecified)
system.work_item_type0::1.37439e+11-2.06158e+11            0      0.00%      0.00% # Run time stat forwork_item_type0 (Unspecified)
system.work_item_type0::2.06158e+11-2.74878e+11            0      0.00%      0.00% # Run time stat forwork_item_type0 (Unspecified)
system.work_item_type0::2.74878e+11-3.43597e+11            0      0.00%      0.00% # Run time stat forwork_item_type0 (Unspecified)
system.work_item_type0::3.43597e+11-4.12317e+11            0      0.00%      0.00% # Run time stat forwork_item_type0 (Unspecified)
system.work_item_type0::4.12317e+11-4.81036e+11            0      0.00%      0.00% # Run time stat forwork_item_type0 (Unspecified)
system.work_item_type0::4.81036e+11-5.49756e+11            0      0.00%      0.00% # Run time stat forwork_item_type0 (Unspecified)
system.work_item_type0::5.49756e+11-6.18475e+11            0      0.00%      0.00% # Run time stat forwork_item_type0 (Unspecified)
system.work_item_type0::6.18475e+11-6.87195e+11            0      0.00%      0.00% # Run time stat forwork_item_type0 (Unspecified)
system.work_item_type0::6.87195e+11-7.55914e+11            0      0.00%      0.00% # Run time stat forwork_item_type0 (Unspecified)
system.work_item_type0::7.55914e+11-8.24634e+11            0      0.00%      0.00% # Run time stat forwork_item_type0 (Unspecified)
system.work_item_type0::8.24634e+11-8.93353e+11            0      0.00%      0.00% # Run time stat forwork_item_type0 (Unspecified)
system.work_item_type0::8.93353e+11-9.62073e+11            0      0.00%      0.00% # Run time stat forwork_item_type0 (Unspecified)
system.work_item_type0::9.62073e+11-1.03079e+12            0      0.00%      0.00% # Run time stat forwork_item_type0 (Unspecified)
system.work_item_type0::1.03079e+12-1.09951e+12            0      0.00%      0.00% # Run time stat forwork_item_type0 (Unspecified)
system.work_item_type0::1.09951e+12-1.16823e+12            0      0.00%      0.00% # Run time stat forwork_item_type0 (Unspecified)
system.work_item_type0::1.16823e+12-1.23695e+12            1    100.00%    100.00% # Run time stat forwork_item_type0 (Unspecified)
system.work_item_type0::1.23695e+12-1.30567e+12            0      0.00%    100.00% # Run time stat forwork_item_type0 (Unspecified)
system.work_item_type0::1.30567e+12-1.37439e+12            0      0.00%    100.00% # Run time stat forwork_item_type0 (Unspecified)
system.work_item_type0::total                       1                       # Run time stat forwork_item_type0 (Unspecified)
system.atomicCpu0.numCycles                         0                       # Number of cpu cycles simulated (Cycle)
system.atomicCpu0.numWorkItemsStarted               0                       # Number of work items this cpu started (Count)
system.atomicCpu0.numWorkItemsCompleted             0                       # Number of work items this cpu completed (Count)
system.atomicCpu0.exec_context.thread_0.numInsts            0                       # Number of instructions committed (Count)
system.atomicCpu0.exec_context.thread_0.numOps            0                       # Number of ops (including micro ops) committed (Count)
system.atomicCpu0.exec_context.thread_0.numIntAluAccesses            0                       # Number of integer alu accesses (Count)
system.atomicCpu0.exec_context.thread_0.numFpAluAccesses            0                       # Number of float alu accesses (Count)
system.atomicCpu0.exec_context.thread_0.numVecAluAccesses            0                       # Number of vector alu accesses (Count)
system.atomicCpu0.exec_context.thread_0.numCallsReturns            0                       # Number of times a function call or return occured (Count)
system.atomicCpu0.exec_context.thread_0.numCondCtrlInsts            0                       # Number of instructions that are conditional controls (Count)
system.atomicCpu0.exec_context.thread_0.numIntInsts            0                       # Number of integer instructions (Count)
system.atomicCpu0.exec_context.thread_0.numFpInsts            0                       # Number of float instructions (Count)
system.atomicCpu0.exec_context.thread_0.numVecInsts            0                       # Number of vector instructions (Count)
system.atomicCpu0.exec_context.thread_0.numIntRegReads            0                       # Number of times the integer registers were read (Count)
system.atomicCpu0.exec_context.thread_0.numIntRegWrites            0                       # Number of times the integer registers were written (Count)
system.atomicCpu0.exec_context.thread_0.numFpRegReads            0                       # Number of times the floating registers were read (Count)
system.atomicCpu0.exec_context.thread_0.numFpRegWrites            0                       # Number of times the floating registers were written (Count)
system.atomicCpu0.exec_context.thread_0.numVecRegReads            0                       # Number of times the vector registers were read (Count)
system.atomicCpu0.exec_context.thread_0.numVecRegWrites            0                       # Number of times the vector registers were written (Count)
system.atomicCpu0.exec_context.thread_0.numVecPredRegReads            0                       # Number of times the predicate registers were read (Count)
system.atomicCpu0.exec_context.thread_0.numVecPredRegWrites            0                       # Number of times the predicate registers were written (Count)
system.atomicCpu0.exec_context.thread_0.numMiscRegReads            0                       # Number of times the Misc registers were read (Count)
system.atomicCpu0.exec_context.thread_0.numMiscRegWrites            0                       # Number of times the Misc registers were written (Count)
system.atomicCpu0.exec_context.thread_0.numMemRefs            0                       # Number of memory refs (Count)
system.atomicCpu0.exec_context.thread_0.numLoadInsts            0                       # Number of load instructions (Count)
system.atomicCpu0.exec_context.thread_0.numStoreInsts            0                       # Number of store instructions (Count)
system.atomicCpu0.exec_context.thread_0.numIdleCycles            0                       # Number of idle cycles (Cycle)
system.atomicCpu0.exec_context.thread_0.numBusyCycles            0                       # Number of busy cycles (Cycle)
system.atomicCpu0.exec_context.thread_0.notIdleFraction            0                       # Percentage of non-idle cycles (Ratio)
system.atomicCpu0.exec_context.thread_0.idleFraction            1                       # Percentage of idle cycles (Ratio)
system.atomicCpu0.exec_context.thread_0.statExecutedInstType::No_OpClass            0                       # Class of executed instruction. (Count)
system.atomicCpu0.exec_context.thread_0.statExecutedInstType::IntAlu            0                       # Class of executed instruction. (Count)
system.atomicCpu0.exec_context.thread_0.statExecutedInstType::IntMult            0                       # Class of executed instruction. (Count)
system.atomicCpu0.exec_context.thread_0.statExecutedInstType::IntDiv            0                       # Class of executed instruction. (Count)
system.atomicCpu0.exec_context.thread_0.statExecutedInstType::FloatAdd            0                       # Class of executed instruction. (Count)
system.atomicCpu0.exec_context.thread_0.statExecutedInstType::FloatCmp            0                       # Class of executed instruction. (Count)
system.atomicCpu0.exec_context.thread_0.statExecutedInstType::FloatCvt            0                       # Class of executed instruction. (Count)
system.atomicCpu0.exec_context.thread_0.statExecutedInstType::FloatMult            0                       # Class of executed instruction. (Count)
system.atomicCpu0.exec_context.thread_0.statExecutedInstType::FloatMultAcc            0                       # Class of executed instruction. (Count)
system.atomicCpu0.exec_context.thread_0.statExecutedInstType::FloatDiv            0                       # Class of executed instruction. (Count)
system.atomicCpu0.exec_context.thread_0.statExecutedInstType::FloatMisc            0                       # Class of executed instruction. (Count)
system.atomicCpu0.exec_context.thread_0.statExecutedInstType::FloatSqrt            0                       # Class of executed instruction. (Count)
system.atomicCpu0.exec_context.thread_0.statExecutedInstType::SimdAdd            0                       # Class of executed instruction. (Count)
system.atomicCpu0.exec_context.thread_0.statExecutedInstType::SimdAddAcc            0                       # Class of executed instruction. (Count)
system.atomicCpu0.exec_context.thread_0.statExecutedInstType::SimdAlu            0                       # Class of executed instruction. (Count)
system.atomicCpu0.exec_context.thread_0.statExecutedInstType::SimdCmp            0                       # Class of executed instruction. (Count)
system.atomicCpu0.exec_context.thread_0.statExecutedInstType::SimdCvt            0                       # Class of executed instruction. (Count)
system.atomicCpu0.exec_context.thread_0.statExecutedInstType::SimdMisc            0                       # Class of executed instruction. (Count)
system.atomicCpu0.exec_context.thread_0.statExecutedInstType::SimdMult            0                       # Class of executed instruction. (Count)
system.atomicCpu0.exec_context.thread_0.statExecutedInstType::SimdMultAcc            0                       # Class of executed instruction. (Count)
system.atomicCpu0.exec_context.thread_0.statExecutedInstType::SimdShift            0                       # Class of executed instruction. (Count)
system.atomicCpu0.exec_context.thread_0.statExecutedInstType::SimdShiftAcc            0                       # Class of executed instruction. (Count)
system.atomicCpu0.exec_context.thread_0.statExecutedInstType::SimdDiv            0                       # Class of executed instruction. (Count)
system.atomicCpu0.exec_context.thread_0.statExecutedInstType::SimdSqrt            0                       # Class of executed instruction. (Count)
system.atomicCpu0.exec_context.thread_0.statExecutedInstType::SimdFloatAdd            0                       # Class of executed instruction. (Count)
system.atomicCpu0.exec_context.thread_0.statExecutedInstType::SimdFloatAlu            0                       # Class of executed instruction. (Count)
system.atomicCpu0.exec_context.thread_0.statExecutedInstType::SimdFloatCmp            0                       # Class of executed instruction. (Count)
system.atomicCpu0.exec_context.thread_0.statExecutedInstType::SimdFloatCvt            0                       # Class of executed instruction. (Count)
system.atomicCpu0.exec_context.thread_0.statExecutedInstType::SimdFloatDiv            0                       # Class of executed instruction. (Count)
system.atomicCpu0.exec_context.thread_0.statExecutedInstType::SimdFloatMisc            0                       # Class of executed instruction. (Count)
system.atomicCpu0.exec_context.thread_0.statExecutedInstType::SimdFloatMult            0                       # Class of executed instruction. (Count)
system.atomicCpu0.exec_context.thread_0.statExecutedInstType::SimdFloatMultAcc            0                       # Class of executed instruction. (Count)
system.atomicCpu0.exec_context.thread_0.statExecutedInstType::SimdFloatSqrt            0                       # Class of executed instruction. (Count)
system.atomicCpu0.exec_context.thread_0.statExecutedInstType::SimdReduceAdd            0                       # Class of executed instruction. (Count)
system.atomicCpu0.exec_context.thread_0.statExecutedInstType::SimdReduceAlu            0                       # Class of executed instruction. (Count)
system.atomicCpu0.exec_context.thread_0.statExecutedInstType::SimdReduceCmp            0                       # Class of executed instruction. (Count)
system.atomicCpu0.exec_context.thread_0.statExecutedInstType::SimdFloatReduceAdd            0                       # Class of executed instruction. (Count)
system.atomicCpu0.exec_context.thread_0.statExecutedInstType::SimdFloatReduceCmp            0                       # Class of executed instruction. (Count)
system.atomicCpu0.exec_context.thread_0.statExecutedInstType::SimdAes            0                       # Class of executed instruction. (Count)
system.atomicCpu0.exec_context.thread_0.statExecutedInstType::SimdAesMix            0                       # Class of executed instruction. (Count)
system.atomicCpu0.exec_context.thread_0.statExecutedInstType::SimdSha1Hash            0                       # Class of executed instruction. (Count)
system.atomicCpu0.exec_context.thread_0.statExecutedInstType::SimdSha1Hash2            0                       # Class of executed instruction. (Count)
system.atomicCpu0.exec_context.thread_0.statExecutedInstType::SimdSha256Hash            0                       # Class of executed instruction. (Count)
system.atomicCpu0.exec_context.thread_0.statExecutedInstType::SimdSha256Hash2            0                       # Class of executed instruction. (Count)
system.atomicCpu0.exec_context.thread_0.statExecutedInstType::SimdShaSigma2            0                       # Class of executed instruction. (Count)
system.atomicCpu0.exec_context.thread_0.statExecutedInstType::SimdShaSigma3            0                       # Class of executed instruction. (Count)
system.atomicCpu0.exec_context.thread_0.statExecutedInstType::SimdPredAlu            0                       # Class of executed instruction. (Count)
system.atomicCpu0.exec_context.thread_0.statExecutedInstType::MemRead            0                       # Class of executed instruction. (Count)
system.atomicCpu0.exec_context.thread_0.statExecutedInstType::MemWrite            0                       # Class of executed instruction. (Count)
system.atomicCpu0.exec_context.thread_0.statExecutedInstType::FloatMemRead            0                       # Class of executed instruction. (Count)
system.atomicCpu0.exec_context.thread_0.statExecutedInstType::FloatMemWrite            0                       # Class of executed instruction. (Count)
system.atomicCpu0.exec_context.thread_0.statExecutedInstType::IprAccess            0                       # Class of executed instruction. (Count)
system.atomicCpu0.exec_context.thread_0.statExecutedInstType::InstPrefetch            0                       # Class of executed instruction. (Count)
system.atomicCpu0.exec_context.thread_0.statExecutedInstType::total            0                       # Class of executed instruction. (Count)
system.atomicCpu0.mmu.dtb.rdAccesses                0                       # TLB accesses on read requests (Count)
system.atomicCpu0.mmu.dtb.wrAccesses                0                       # TLB accesses on write requests (Count)
system.atomicCpu0.mmu.dtb.rdMisses                  0                       # TLB misses on read requests (Count)
system.atomicCpu0.mmu.dtb.wrMisses                  0                       # TLB misses on write requests (Count)
system.atomicCpu0.mmu.dtb.walker.power_state.pwrStateResidencyTicks::UNDEFINED 161378243471001                       # Cumulative time (in ticks) in various power states (Tick)
system.atomicCpu0.mmu.itb.rdAccesses                0                       # TLB accesses on read requests (Count)
system.atomicCpu0.mmu.itb.wrAccesses                0                       # TLB accesses on write requests (Count)
system.atomicCpu0.mmu.itb.rdMisses                  0                       # TLB misses on read requests (Count)
system.atomicCpu0.mmu.itb.wrMisses                  0                       # TLB misses on write requests (Count)
system.atomicCpu0.mmu.itb.walker.power_state.pwrStateResidencyTicks::UNDEFINED 161378243471001                       # Cumulative time (in ticks) in various power states (Tick)
system.atomicCpu0.power_state.pwrStateResidencyTicks::OFF 161378243471001                       # Cumulative time (in ticks) in various power states (Tick)
system.atomicCpu0.thread_0.numInsts                 0                       # Number of Instructions committed (Count)
system.atomicCpu0.thread_0.numOps                   0                       # Number of Ops committed (Count)
system.atomicCpu0.thread_0.numMemRefs               0                       # Number of Memory References (Count)
system.atomicCpu1.numCycles                         0                       # Number of cpu cycles simulated (Cycle)
system.atomicCpu1.numWorkItemsStarted               0                       # Number of work items this cpu started (Count)
system.atomicCpu1.numWorkItemsCompleted             0                       # Number of work items this cpu completed (Count)
system.atomicCpu1.exec_context.thread_0.numInsts            0                       # Number of instructions committed (Count)
system.atomicCpu1.exec_context.thread_0.numOps            0                       # Number of ops (including micro ops) committed (Count)
system.atomicCpu1.exec_context.thread_0.numIntAluAccesses            0                       # Number of integer alu accesses (Count)
system.atomicCpu1.exec_context.thread_0.numFpAluAccesses            0                       # Number of float alu accesses (Count)
system.atomicCpu1.exec_context.thread_0.numVecAluAccesses            0                       # Number of vector alu accesses (Count)
system.atomicCpu1.exec_context.thread_0.numCallsReturns            0                       # Number of times a function call or return occured (Count)
system.atomicCpu1.exec_context.thread_0.numCondCtrlInsts            0                       # Number of instructions that are conditional controls (Count)
system.atomicCpu1.exec_context.thread_0.numIntInsts            0                       # Number of integer instructions (Count)
system.atomicCpu1.exec_context.thread_0.numFpInsts            0                       # Number of float instructions (Count)
system.atomicCpu1.exec_context.thread_0.numVecInsts            0                       # Number of vector instructions (Count)
system.atomicCpu1.exec_context.thread_0.numIntRegReads            0                       # Number of times the integer registers were read (Count)
system.atomicCpu1.exec_context.thread_0.numIntRegWrites            0                       # Number of times the integer registers were written (Count)
system.atomicCpu1.exec_context.thread_0.numFpRegReads            0                       # Number of times the floating registers were read (Count)
system.atomicCpu1.exec_context.thread_0.numFpRegWrites            0                       # Number of times the floating registers were written (Count)
system.atomicCpu1.exec_context.thread_0.numVecRegReads            0                       # Number of times the vector registers were read (Count)
system.atomicCpu1.exec_context.thread_0.numVecRegWrites            0                       # Number of times the vector registers were written (Count)
system.atomicCpu1.exec_context.thread_0.numVecPredRegReads            0                       # Number of times the predicate registers were read (Count)
system.atomicCpu1.exec_context.thread_0.numVecPredRegWrites            0                       # Number of times the predicate registers were written (Count)
system.atomicCpu1.exec_context.thread_0.numMiscRegReads            0                       # Number of times the Misc registers were read (Count)
system.atomicCpu1.exec_context.thread_0.numMiscRegWrites            0                       # Number of times the Misc registers were written (Count)
system.atomicCpu1.exec_context.thread_0.numMemRefs            0                       # Number of memory refs (Count)
system.atomicCpu1.exec_context.thread_0.numLoadInsts            0                       # Number of load instructions (Count)
system.atomicCpu1.exec_context.thread_0.numStoreInsts            0                       # Number of store instructions (Count)
system.atomicCpu1.exec_context.thread_0.numIdleCycles            0                       # Number of idle cycles (Cycle)
system.atomicCpu1.exec_context.thread_0.numBusyCycles            0                       # Number of busy cycles (Cycle)
system.atomicCpu1.exec_context.thread_0.notIdleFraction            0                       # Percentage of non-idle cycles (Ratio)
system.atomicCpu1.exec_context.thread_0.idleFraction            1                       # Percentage of idle cycles (Ratio)
system.atomicCpu1.exec_context.thread_0.statExecutedInstType::No_OpClass            0                       # Class of executed instruction. (Count)
system.atomicCpu1.exec_context.thread_0.statExecutedInstType::IntAlu            0                       # Class of executed instruction. (Count)
system.atomicCpu1.exec_context.thread_0.statExecutedInstType::IntMult            0                       # Class of executed instruction. (Count)
system.atomicCpu1.exec_context.thread_0.statExecutedInstType::IntDiv            0                       # Class of executed instruction. (Count)
system.atomicCpu1.exec_context.thread_0.statExecutedInstType::FloatAdd            0                       # Class of executed instruction. (Count)
system.atomicCpu1.exec_context.thread_0.statExecutedInstType::FloatCmp            0                       # Class of executed instruction. (Count)
system.atomicCpu1.exec_context.thread_0.statExecutedInstType::FloatCvt            0                       # Class of executed instruction. (Count)
system.atomicCpu1.exec_context.thread_0.statExecutedInstType::FloatMult            0                       # Class of executed instruction. (Count)
system.atomicCpu1.exec_context.thread_0.statExecutedInstType::FloatMultAcc            0                       # Class of executed instruction. (Count)
system.atomicCpu1.exec_context.thread_0.statExecutedInstType::FloatDiv            0                       # Class of executed instruction. (Count)
system.atomicCpu1.exec_context.thread_0.statExecutedInstType::FloatMisc            0                       # Class of executed instruction. (Count)
system.atomicCpu1.exec_context.thread_0.statExecutedInstType::FloatSqrt            0                       # Class of executed instruction. (Count)
system.atomicCpu1.exec_context.thread_0.statExecutedInstType::SimdAdd            0                       # Class of executed instruction. (Count)
system.atomicCpu1.exec_context.thread_0.statExecutedInstType::SimdAddAcc            0                       # Class of executed instruction. (Count)
system.atomicCpu1.exec_context.thread_0.statExecutedInstType::SimdAlu            0                       # Class of executed instruction. (Count)
system.atomicCpu1.exec_context.thread_0.statExecutedInstType::SimdCmp            0                       # Class of executed instruction. (Count)
system.atomicCpu1.exec_context.thread_0.statExecutedInstType::SimdCvt            0                       # Class of executed instruction. (Count)
system.atomicCpu1.exec_context.thread_0.statExecutedInstType::SimdMisc            0                       # Class of executed instruction. (Count)
system.atomicCpu1.exec_context.thread_0.statExecutedInstType::SimdMult            0                       # Class of executed instruction. (Count)
system.atomicCpu1.exec_context.thread_0.statExecutedInstType::SimdMultAcc            0                       # Class of executed instruction. (Count)
system.atomicCpu1.exec_context.thread_0.statExecutedInstType::SimdShift            0                       # Class of executed instruction. (Count)
system.atomicCpu1.exec_context.thread_0.statExecutedInstType::SimdShiftAcc            0                       # Class of executed instruction. (Count)
system.atomicCpu1.exec_context.thread_0.statExecutedInstType::SimdDiv            0                       # Class of executed instruction. (Count)
system.atomicCpu1.exec_context.thread_0.statExecutedInstType::SimdSqrt            0                       # Class of executed instruction. (Count)
system.atomicCpu1.exec_context.thread_0.statExecutedInstType::SimdFloatAdd            0                       # Class of executed instruction. (Count)
system.atomicCpu1.exec_context.thread_0.statExecutedInstType::SimdFloatAlu            0                       # Class of executed instruction. (Count)
system.atomicCpu1.exec_context.thread_0.statExecutedInstType::SimdFloatCmp            0                       # Class of executed instruction. (Count)
system.atomicCpu1.exec_context.thread_0.statExecutedInstType::SimdFloatCvt            0                       # Class of executed instruction. (Count)
system.atomicCpu1.exec_context.thread_0.statExecutedInstType::SimdFloatDiv            0                       # Class of executed instruction. (Count)
system.atomicCpu1.exec_context.thread_0.statExecutedInstType::SimdFloatMisc            0                       # Class of executed instruction. (Count)
system.atomicCpu1.exec_context.thread_0.statExecutedInstType::SimdFloatMult            0                       # Class of executed instruction. (Count)
system.atomicCpu1.exec_context.thread_0.statExecutedInstType::SimdFloatMultAcc            0                       # Class of executed instruction. (Count)
system.atomicCpu1.exec_context.thread_0.statExecutedInstType::SimdFloatSqrt            0                       # Class of executed instruction. (Count)
system.atomicCpu1.exec_context.thread_0.statExecutedInstType::SimdReduceAdd            0                       # Class of executed instruction. (Count)
system.atomicCpu1.exec_context.thread_0.statExecutedInstType::SimdReduceAlu            0                       # Class of executed instruction. (Count)
system.atomicCpu1.exec_context.thread_0.statExecutedInstType::SimdReduceCmp            0                       # Class of executed instruction. (Count)
system.atomicCpu1.exec_context.thread_0.statExecutedInstType::SimdFloatReduceAdd            0                       # Class of executed instruction. (Count)
system.atomicCpu1.exec_context.thread_0.statExecutedInstType::SimdFloatReduceCmp            0                       # Class of executed instruction. (Count)
system.atomicCpu1.exec_context.thread_0.statExecutedInstType::SimdAes            0                       # Class of executed instruction. (Count)
system.atomicCpu1.exec_context.thread_0.statExecutedInstType::SimdAesMix            0                       # Class of executed instruction. (Count)
system.atomicCpu1.exec_context.thread_0.statExecutedInstType::SimdSha1Hash            0                       # Class of executed instruction. (Count)
system.atomicCpu1.exec_context.thread_0.statExecutedInstType::SimdSha1Hash2            0                       # Class of executed instruction. (Count)
system.atomicCpu1.exec_context.thread_0.statExecutedInstType::SimdSha256Hash            0                       # Class of executed instruction. (Count)
system.atomicCpu1.exec_context.thread_0.statExecutedInstType::SimdSha256Hash2            0                       # Class of executed instruction. (Count)
system.atomicCpu1.exec_context.thread_0.statExecutedInstType::SimdShaSigma2            0                       # Class of executed instruction. (Count)
system.atomicCpu1.exec_context.thread_0.statExecutedInstType::SimdShaSigma3            0                       # Class of executed instruction. (Count)
system.atomicCpu1.exec_context.thread_0.statExecutedInstType::SimdPredAlu            0                       # Class of executed instruction. (Count)
system.atomicCpu1.exec_context.thread_0.statExecutedInstType::MemRead            0                       # Class of executed instruction. (Count)
system.atomicCpu1.exec_context.thread_0.statExecutedInstType::MemWrite            0                       # Class of executed instruction. (Count)
system.atomicCpu1.exec_context.thread_0.statExecutedInstType::FloatMemRead            0                       # Class of executed instruction. (Count)
system.atomicCpu1.exec_context.thread_0.statExecutedInstType::FloatMemWrite            0                       # Class of executed instruction. (Count)
system.atomicCpu1.exec_context.thread_0.statExecutedInstType::IprAccess            0                       # Class of executed instruction. (Count)
system.atomicCpu1.exec_context.thread_0.statExecutedInstType::InstPrefetch            0                       # Class of executed instruction. (Count)
system.atomicCpu1.exec_context.thread_0.statExecutedInstType::total            0                       # Class of executed instruction. (Count)
system.atomicCpu1.mmu.dtb.rdAccesses                0                       # TLB accesses on read requests (Count)
system.atomicCpu1.mmu.dtb.wrAccesses                0                       # TLB accesses on write requests (Count)
system.atomicCpu1.mmu.dtb.rdMisses                  0                       # TLB misses on read requests (Count)
system.atomicCpu1.mmu.dtb.wrMisses                  0                       # TLB misses on write requests (Count)
system.atomicCpu1.mmu.dtb.walker.power_state.pwrStateResidencyTicks::UNDEFINED 161378243471001                       # Cumulative time (in ticks) in various power states (Tick)
system.atomicCpu1.mmu.itb.rdAccesses                0                       # TLB accesses on read requests (Count)
system.atomicCpu1.mmu.itb.wrAccesses                0                       # TLB accesses on write requests (Count)
system.atomicCpu1.mmu.itb.rdMisses                  0                       # TLB misses on read requests (Count)
system.atomicCpu1.mmu.itb.wrMisses                  0                       # TLB misses on write requests (Count)
system.atomicCpu1.mmu.itb.walker.power_state.pwrStateResidencyTicks::UNDEFINED 161378243471001                       # Cumulative time (in ticks) in various power states (Tick)
system.atomicCpu1.power_state.pwrStateResidencyTicks::OFF 161378243471001                       # Cumulative time (in ticks) in various power states (Tick)
system.atomicCpu1.thread_0.numInsts                 0                       # Number of Instructions committed (Count)
system.atomicCpu1.thread_0.numOps                   0                       # Number of Ops committed (Count)
system.atomicCpu1.thread_0.numMemRefs               0                       # Number of Memory References (Count)
system.caches.delayHistogram::bucket_size          256                       # delay histogram for all message (Unspecified)
system.caches.delayHistogram::max_bucket         2559                       # delay histogram for all message (Unspecified)
system.caches.delayHistogram::samples       227112190                       # delay histogram for all message (Unspecified)
system.caches.delayHistogram::mean           0.334477                       # delay histogram for all message (Unspecified)
system.caches.delayHistogram::stdev          1.616228                       # delay histogram for all message (Unspecified)
system.caches.delayHistogram             |   227112179    100.00%    100.00% |           6      0.00%    100.00% |           4      0.00%    100.00% |           0      0.00%    100.00% |           0      0.00%    100.00% |           0      0.00%    100.00% |           0      0.00%    100.00% |           1      0.00%    100.00% |           0      0.00%    100.00% |           0      0.00%    100.00% # delay histogram for all message (Unspecified)
system.caches.delayHistogram::total         227112190                       # delay histogram for all message (Unspecified)
system.caches.m_outstandReqHistSeqr::bucket_size            1                       (Unspecified)
system.caches.m_outstandReqHistSeqr::max_bucket            9                       (Unspecified)
system.caches.m_outstandReqHistSeqr::samples   1840043689                       (Unspecified)
system.caches.m_outstandReqHistSeqr::mean     1.000039                       (Unspecified)
system.caches.m_outstandReqHistSeqr::gmean     1.000027                       (Unspecified)
system.caches.m_outstandReqHistSeqr::stdev     0.006254                       (Unspecified)
system.caches.m_outstandReqHistSeqr      |           0      0.00%      0.00% |  1839971725    100.00%    100.00% |       71964      0.00%    100.00% |           0      0.00%    100.00% |           0      0.00%    100.00% |           0      0.00%    100.00% |           0      0.00%    100.00% |           0      0.00%    100.00% |           0      0.00%    100.00% |           0      0.00%    100.00% (Unspecified)
system.caches.m_outstandReqHistSeqr::total   1840043689                       (Unspecified)
system.caches.m_latencyHistSeqr::bucket_size          512                       (Unspecified)
system.caches.m_latencyHistSeqr::max_bucket         5119                       (Unspecified)
system.caches.m_latencyHistSeqr::samples   1840043688                       (Unspecified)
system.caches.m_latencyHistSeqr::mean        4.159312                       (Unspecified)
system.caches.m_latencyHistSeqr::gmean       1.103679                       (Unspecified)
system.caches.m_latencyHistSeqr::stdev      38.723469                       (Unspecified)
system.caches.m_latencyHistSeqr          |  1837971240     99.89%     99.89% |     1797604      0.10%     99.99% |      108731      0.01%     99.99% |      158551      0.01%    100.00% |        7254      0.00%    100.00% |         274      0.00%    100.00% |          28      0.00%    100.00% |           4      0.00%    100.00% |           2      0.00%    100.00% |           0      0.00%    100.00% (Unspecified)
system.caches.m_latencyHistSeqr::total     1840043688                       (Unspecified)
system.caches.m_hitLatencyHistSeqr::bucket_size            1                       (Unspecified)
system.caches.m_hitLatencyHistSeqr::max_bucket            9                       (Unspecified)
system.caches.m_hitLatencyHistSeqr::samples   1787091286                       (Unspecified)
system.caches.m_hitLatencyHistSeqr::mean            1                       (Unspecified)
system.caches.m_hitLatencyHistSeqr::gmean            1                       (Unspecified)
system.caches.m_hitLatencyHistSeqr       |           0      0.00%      0.00% |  1787091286    100.00%    100.00% |           0      0.00%    100.00% |           0      0.00%    100.00% |           0      0.00%    100.00% |           0      0.00%    100.00% |           0      0.00%    100.00% |           0      0.00%    100.00% |           0      0.00%    100.00% |           0      0.00%    100.00% (Unspecified)
system.caches.m_hitLatencyHistSeqr::total   1787091286                       (Unspecified)
system.caches.m_missLatencyHistSeqr::bucket_size          512                       (Unspecified)
system.caches.m_missLatencyHistSeqr::max_bucket         5119                       (Unspecified)
system.caches.m_missLatencyHistSeqr::samples     52952402                       (Unspecified)
system.caches.m_missLatencyHistSeqr::mean   110.782962                       (Unspecified)
system.caches.m_missLatencyHistSeqr::gmean    30.813327                       (Unspecified)
system.caches.m_missLatencyHistSeqr::stdev   200.999828                       (Unspecified)
system.caches.m_missLatencyHistSeqr      |    50879954     96.09%     96.09% |     1797604      3.39%     99.48% |      108731      0.21%     99.69% |      158551      0.30%     99.99% |        7254      0.01%    100.00% |         274      0.00%    100.00% |          28      0.00%    100.00% |           4      0.00%    100.00% |           2      0.00%    100.00% |           0      0.00%    100.00% (Unspecified)
system.caches.m_missLatencyHistSeqr::total     52952402                       (Unspecified)
system.caches.delayVCHist.vnet_0::bucket_size          256                       # delay histogram for vnet_0 (Unspecified)
system.caches.delayVCHist.vnet_0::max_bucket         2559                       # delay histogram for vnet_0 (Unspecified)
system.caches.delayVCHist.vnet_0::samples    112950680                       # delay histogram for vnet_0 (Unspecified)
system.caches.delayVCHist.vnet_0::mean       0.671694                       # delay histogram for vnet_0 (Unspecified)
system.caches.delayVCHist.vnet_0::stdev      2.240853                       # delay histogram for vnet_0 (Unspecified)
system.caches.delayVCHist.vnet_0         |   112950669    100.00%    100.00% |           6      0.00%    100.00% |           4      0.00%    100.00% |           0      0.00%    100.00% |           0      0.00%    100.00% |           0      0.00%    100.00% |           0      0.00%    100.00% |           1      0.00%    100.00% |           0      0.00%    100.00% |           0      0.00%    100.00% # delay histogram for vnet_0 (Unspecified)
system.caches.delayVCHist.vnet_0::total     112950680                       # delay histogram for vnet_0 (Unspecified)
system.caches.delayVCHist.vnet_1::bucket_size            2                       # delay histogram for vnet_1 (Unspecified)
system.caches.delayVCHist.vnet_1::max_bucket           19                       # delay histogram for vnet_1 (Unspecified)
system.caches.delayVCHist.vnet_1::samples    110386058                       # delay histogram for vnet_1 (Unspecified)
system.caches.delayVCHist.vnet_1::mean       0.000854                       # delay histogram for vnet_1 (Unspecified)
system.caches.delayVCHist.vnet_1::stdev      0.069494                       # delay histogram for vnet_1 (Unspecified)
system.caches.delayVCHist.vnet_1         |   110365142     99.98%     99.98% |        7324      0.01%     99.99% |        5125      0.00%     99.99% |        4305      0.00%    100.00% |        4147      0.00%    100.00% |          15      0.00%    100.00% |           0      0.00%    100.00% |           0      0.00%    100.00% |           0      0.00%    100.00% |           0      0.00%    100.00% # delay histogram for vnet_1 (Unspecified)
system.caches.delayVCHist.vnet_1::total     110386058                       # delay histogram for vnet_1 (Unspecified)
system.caches.delayVCHist.vnet_2::bucket_size            1                       # delay histogram for vnet_2 (Unspecified)
system.caches.delayVCHist.vnet_2::max_bucket            9                       # delay histogram for vnet_2 (Unspecified)
system.caches.delayVCHist.vnet_2::samples      3775452                       # delay histogram for vnet_2 (Unspecified)
system.caches.delayVCHist.vnet_2::mean       0.000333                       # delay histogram for vnet_2 (Unspecified)
system.caches.delayVCHist.vnet_2::stdev      0.025792                       # delay histogram for vnet_2 (Unspecified)
system.caches.delayVCHist.vnet_2         |     3774824     99.98%     99.98% |           0      0.00%     99.98% |         628      0.02%    100.00% |           0      0.00%    100.00% |           0      0.00%    100.00% |           0      0.00%    100.00% |           0      0.00%    100.00% |           0      0.00%    100.00% |           0      0.00%    100.00% |           0      0.00%    100.00% # delay histogram for vnet_2 (Unspecified)
system.caches.delayVCHist.vnet_2::total       3775452                       # delay histogram for vnet_2 (Unspecified)
system.caches.L1Cache_Controller.Load    |   152150261     49.95%     49.95% |   152467712     50.05%    100.00% (Unspecified)
system.caches.L1Cache_Controller.Load::total    304617973                       (Unspecified)
system.caches.L1Cache_Controller.Ifetch  |   741465198     49.86%     49.86% |   745678607     50.14%    100.00% (Unspecified)
system.caches.L1Cache_Controller.Ifetch::total   1487143805                       (Unspecified)
system.caches.L1Cache_Controller.Store   |    23641169     48.96%     48.96% |    24640741     51.04%    100.00% (Unspecified)
system.caches.L1Cache_Controller.Store::total     48281910                       (Unspecified)
system.caches.L1Cache_Controller.Inv     |     1119432     49.93%     49.93% |     1122605     50.07%    100.00% (Unspecified)
system.caches.L1Cache_Controller.Inv::total      2242037                       (Unspecified)
system.caches.L1Cache_Controller.L1_Replacement |    26025749     50.02%     50.02% |    26004834     49.98%    100.00% (Unspecified)
system.caches.L1Cache_Controller.L1_Replacement::total     52030583                       (Unspecified)
system.caches.L1Cache_Controller.Fwd_GETX |       17096     49.51%     49.51% |       17437     50.49%    100.00% (Unspecified)
system.caches.L1Cache_Controller.Fwd_GETX::total        34533                       (Unspecified)
system.caches.L1Cache_Controller.Fwd_GETS |      754014     50.31%     50.31% |      744868     49.69%    100.00% (Unspecified)
system.caches.L1Cache_Controller.Fwd_GETS::total      1498882                       (Unspecified)
system.caches.L1Cache_Controller.Data    |        7079     63.06%     63.06% |        4147     36.94%    100.00% (Unspecified)
system.caches.L1Cache_Controller.Data::total        11226                       (Unspecified)
system.caches.L1Cache_Controller.Data_Exclusive |    14078535     50.11%     50.11% |    14014802     49.89%    100.00% (Unspecified)
system.caches.L1Cache_Controller.Data_Exclusive::total     28093337                       (Unspecified)
system.caches.L1Cache_Controller.DataS_fromL1 |      744868     49.69%     49.69% |      754014     50.31%    100.00% (Unspecified)
system.caches.L1Cache_Controller.DataS_fromL1::total      1498882                       (Unspecified)
system.caches.L1Cache_Controller.Data_all_Acks |    11271132     49.92%     49.92% |    11309436     50.08%    100.00% (Unspecified)
system.caches.L1Cache_Controller.Data_all_Acks::total     22580568                       (Unspecified)
system.caches.L1Cache_Controller.Ack     |      386070     50.24%     50.24% |      382319     49.76%    100.00% (Unspecified)
system.caches.L1Cache_Controller.Ack::total       768389                       (Unspecified)
system.caches.L1Cache_Controller.Ack_all |      393149     50.43%     50.43% |      386466     49.57%    100.00% (Unspecified)
system.caches.L1Cache_Controller.Ack_all::total       779615                       (Unspecified)
system.caches.L1Cache_Controller.WB_Ack  |    14226424     49.96%     49.96% |    14246921     50.04%    100.00% (Unspecified)
system.caches.L1Cache_Controller.WB_Ack::total     28473345                       (Unspecified)
system.caches.L1Cache_Controller.NP.Load |    25460633     50.09%     50.09% |    25369697     49.91%    100.00% (Unspecified)
system.caches.L1Cache_Controller.NP.Load::total     50830330                       (Unspecified)
system.caches.L1Cache_Controller.NP.Ifetch |       40640     56.10%     56.10% |       31797     43.90%    100.00% (Unspecified)
system.caches.L1Cache_Controller.NP.Ifetch::total        72437                       (Unspecified)
system.caches.L1Cache_Controller.NP.Store |      533179     46.56%     46.56% |      612044     53.44%    100.00% (Unspecified)
system.caches.L1Cache_Controller.NP.Store::total      1145223                       (Unspecified)
system.caches.L1Cache_Controller.NP.Inv  |      764493     49.89%     49.89% |      767772     50.11%    100.00% (Unspecified)
system.caches.L1Cache_Controller.NP.Inv::total      1532265                       (Unspecified)
system.caches.L1Cache_Controller.I.Load  |       31919     45.95%     45.95% |       37550     54.05%    100.00% (Unspecified)
system.caches.L1Cache_Controller.I.Load::total        69469                       (Unspecified)
system.caches.L1Cache_Controller.I.Ifetch |       25686     54.13%     54.13% |       21766     45.87%    100.00% (Unspecified)
system.caches.L1Cache_Controller.I.Ifetch::total        47452                       (Unspecified)
system.caches.L1Cache_Controller.I.Store |        9553     50.08%     50.08% |        9524     49.92%    100.00% (Unspecified)
system.caches.L1Cache_Controller.I.Store::total        19077                       (Unspecified)
system.caches.L1Cache_Controller.I.L1_Replacement |      304618     50.10%     50.10% |      303401     49.90%    100.00% (Unspecified)
system.caches.L1Cache_Controller.I.L1_Replacement::total       608019                       (Unspecified)
system.caches.L1Cache_Controller.S.Load  |    65854169     50.03%     50.03% |    65773304     49.97%    100.00% (Unspecified)
system.caches.L1Cache_Controller.S.Load::total    131627473                       (Unspecified)
system.caches.L1Cache_Controller.S.Ifetch |   741398872     49.86%     49.86% |   745625044     50.14%    100.00% (Unspecified)
system.caches.L1Cache_Controller.S.Ifetch::total   1487023916                       (Unspecified)
system.caches.L1Cache_Controller.S.Store |      386074     50.24%     50.24% |      382340     49.76%    100.00% (Unspecified)
system.caches.L1Cache_Controller.S.Store::total       768414                       (Unspecified)
system.caches.L1Cache_Controller.S.Inv   |      353217     49.99%     49.99% |      353400     50.01%    100.00% (Unspecified)
system.caches.L1Cache_Controller.S.Inv::total       706617                       (Unspecified)
system.caches.L1Cache_Controller.S.L1_Replacement |    11494707     50.09%     50.09% |    11454512     49.91%    100.00% (Unspecified)
system.caches.L1Cache_Controller.S.L1_Replacement::total     22949219                       (Unspecified)
system.caches.L1Cache_Controller.E.Load  |    47445818     49.93%     49.93% |    47580204     50.07%    100.00% (Unspecified)
system.caches.L1Cache_Controller.E.Load::total     95026022                       (Unspecified)
system.caches.L1Cache_Controller.E.Store |     4070495     50.08%     50.08% |     4057476     49.92%    100.00% (Unspecified)
system.caches.L1Cache_Controller.E.Store::total      8127971                       (Unspecified)
system.caches.L1Cache_Controller.E.Inv   |         721     49.32%     49.32% |         741     50.68%    100.00% (Unspecified)
system.caches.L1Cache_Controller.E.Inv::total         1462                       (Unspecified)
system.caches.L1Cache_Controller.E.L1_Replacement |     9585750     50.13%     50.13% |     9534706     49.87%    100.00% (Unspecified)
system.caches.L1Cache_Controller.E.L1_Replacement::total     19120456                       (Unspecified)
system.caches.L1Cache_Controller.E.Fwd_GETX |        1528     44.21%     44.21% |        1928     55.79%    100.00% (Unspecified)
system.caches.L1Cache_Controller.E.Fwd_GETX::total         3456                       (Unspecified)
system.caches.L1Cache_Controller.E.Fwd_GETS |      420001     50.02%     50.02% |      419605     49.98%    100.00% (Unspecified)
system.caches.L1Cache_Controller.E.Fwd_GETS::total       839606                       (Unspecified)
system.caches.L1Cache_Controller.M.Load  |    13357722     49.35%     49.35% |    13706957     50.65%    100.00% (Unspecified)
system.caches.L1Cache_Controller.M.Load::total     27064679                       (Unspecified)
system.caches.L1Cache_Controller.M.Store |    18641868     48.77%     48.77% |    19579357     51.23%    100.00% (Unspecified)
system.caches.L1Cache_Controller.M.Store::total     38221225                       (Unspecified)
system.caches.L1Cache_Controller.M.Inv   |         996     59.96%     59.96% |         665     40.04%    100.00% (Unspecified)
system.caches.L1Cache_Controller.M.Inv::total         1661                       (Unspecified)
system.caches.L1Cache_Controller.M.L1_Replacement |     4640674     49.62%     49.62% |     4712215     50.38%    100.00% (Unspecified)
system.caches.L1Cache_Controller.M.L1_Replacement::total      9352889                       (Unspecified)
system.caches.L1Cache_Controller.M.Fwd_GETX |       15568     50.09%     50.09% |       15509     49.91%    100.00% (Unspecified)
system.caches.L1Cache_Controller.M.Fwd_GETX::total        31077                       (Unspecified)
system.caches.L1Cache_Controller.M.Fwd_GETS |      334009     50.66%     50.66% |      325258     49.34%    100.00% (Unspecified)
system.caches.L1Cache_Controller.M.Fwd_GETS::total       659267                       (Unspecified)
system.caches.L1Cache_Controller.IS.Inv  |           1     14.29%     14.29% |           6     85.71%    100.00% (Unspecified)
system.caches.L1Cache_Controller.IS.Inv::total            7                       (Unspecified)
system.caches.L1Cache_Controller.IS.Data_Exclusive |    14078534     50.11%     50.11% |    14014801     49.89%    100.00% (Unspecified)
system.caches.L1Cache_Controller.IS.Data_Exclusive::total     28093335                       (Unspecified)
system.caches.L1Cache_Controller.IS.DataS_fromL1 |      744868     49.70%     49.70% |      754010     50.30%    100.00% (Unspecified)
system.caches.L1Cache_Controller.IS.DataS_fromL1::total      1498878                       (Unspecified)
system.caches.L1Cache_Controller.IS.Data_all_Acks |    10735475     50.10%     50.10% |    10691993     49.90%    100.00% (Unspecified)
system.caches.L1Cache_Controller.IS.Data_all_Acks::total     21427468                       (Unspecified)
system.caches.L1Cache_Controller.IM.Data |        7079     63.06%     63.06% |        4147     36.94%    100.00% (Unspecified)
system.caches.L1Cache_Controller.IM.Data::total        11226                       (Unspecified)
system.caches.L1Cache_Controller.IM.Data_all_Acks |      535657     46.45%     46.45% |      617442     53.55%    100.00% (Unspecified)
system.caches.L1Cache_Controller.IM.Data_all_Acks::total      1153099                       (Unspecified)
system.caches.L1Cache_Controller.SM.Inv  |           4     16.00%     16.00% |          21     84.00%    100.00% (Unspecified)
system.caches.L1Cache_Controller.SM.Inv::total           25                       (Unspecified)
system.caches.L1Cache_Controller.SM.Ack  |      386070     50.24%     50.24% |      382319     49.76%    100.00% (Unspecified)
system.caches.L1Cache_Controller.SM.Ack::total       768389                       (Unspecified)
system.caches.L1Cache_Controller.SM.Ack_all |      393149     50.43%     50.43% |      386466     49.57%    100.00% (Unspecified)
system.caches.L1Cache_Controller.SM.Ack_all::total       779615                       (Unspecified)
system.caches.L1Cache_Controller.IS_I.Data_Exclusive |           1     50.00%     50.00% |           1     50.00%    100.00% (Unspecified)
system.caches.L1Cache_Controller.IS_I.Data_Exclusive::total            2                       (Unspecified)
system.caches.L1Cache_Controller.IS_I.DataS_fromL1 |           0      0.00%      0.00% |           4    100.00%    100.00% (Unspecified)
system.caches.L1Cache_Controller.IS_I.DataS_fromL1::total            4                       (Unspecified)
system.caches.L1Cache_Controller.IS_I.Data_all_Acks |           0      0.00%      0.00% |           1    100.00%    100.00% (Unspecified)
system.caches.L1Cache_Controller.IS_I.Data_all_Acks::total            1                       (Unspecified)
system.caches.L1Cache_Controller.M_I.Fwd_GETS |           4     44.44%     44.44% |           5     55.56%    100.00% (Unspecified)
system.caches.L1Cache_Controller.M_I.Fwd_GETS::total            9                       (Unspecified)
system.caches.L1Cache_Controller.M_I.WB_Ack |    14226420     49.96%     49.96% |    14246916     50.04%    100.00% (Unspecified)
system.caches.L1Cache_Controller.M_I.WB_Ack::total     28473336                       (Unspecified)
system.caches.L1Cache_Controller.SINK_WB_ACK.WB_Ack |           4     44.44%     44.44% |           5     55.56%    100.00% (Unspecified)
system.caches.L1Cache_Controller.SINK_WB_ACK.WB_Ack::total            9                       (Unspecified)
system.caches.Directory_Controller.Fetch     12675232      0.00%      0.00% (Unspecified)
system.caches.Directory_Controller.Data       3597896      0.00%      0.00% (Unspecified)
system.caches.Directory_Controller.Memory_Data     12675232      0.00%      0.00% (Unspecified)
system.caches.Directory_Controller.Memory_Ack      3597896      0.00%      0.00% (Unspecified)
system.caches.Directory_Controller.CleanReplacement      8946264      0.00%      0.00% (Unspecified)
system.caches.Directory_Controller.I.Fetch     12675232      0.00%      0.00% (Unspecified)
system.caches.Directory_Controller.M.Data      3597896      0.00%      0.00% (Unspecified)
system.caches.Directory_Controller.M.CleanReplacement      8946264      0.00%      0.00% (Unspecified)
system.caches.Directory_Controller.IM.Memory_Data     12675232      0.00%      0.00% (Unspecified)
system.caches.Directory_Controller.MI.Memory_Ack      3597896      0.00%      0.00% (Unspecified)
system.caches.L2Cache_Controller.L1_GET_INSTR |        9015      7.51%      7.51% |       20358     16.97%     24.48% |       18110     15.10%     39.58% |        6783      5.65%     45.23% |       11730      9.78%     55.01% |       17567     14.64%     69.65% |       18775     15.65%     85.30% |       17633     14.70%    100.00% (Unspecified)
system.caches.L2Cache_Controller.L1_GET_INSTR::total       119971                       (Unspecified)
system.caches.L2Cache_Controller.L1_GETS |     6385247     12.54%     12.54% |     6324545     12.42%     24.97% |     6377853     12.53%     37.50% |     6365509     12.51%     50.00% |     6434063     12.64%     62.64% |     6371310     12.52%     75.16% |     6291222     12.36%     87.52% |     6353361     12.48%    100.00% (Unspecified)
system.caches.L2Cache_Controller.L1_GETS::total     50903110                       (Unspecified)
system.caches.L2Cache_Controller.L1_GETX |      146722     12.60%     12.60% |      148422     12.75%     25.35% |      137373     11.80%     37.15% |      152898     13.13%     50.28% |      140605     12.08%     62.35% |      149016     12.80%     75.15% |      144967     12.45%     87.60% |      144349     12.40%    100.00% (Unspecified)
system.caches.L2Cache_Controller.L1_GETX::total      1164352                       (Unspecified)
system.caches.L2Cache_Controller.L1_UPGRADE |       93348     12.11%     12.11% |       98284     12.75%     24.85% |       98888     12.82%     37.68% |       97013     12.58%     50.26% |       94031     12.19%     62.45% |       93093     12.07%     74.52% |      102711     13.32%     87.84% |       93728     12.16%    100.00% (Unspecified)
system.caches.L2Cache_Controller.L1_UPGRADE::total       771096                       (Unspecified)
system.caches.L2Cache_Controller.L1_PUTX |     3576446     12.56%     12.56% |     3567545     12.53%     25.09% |     3549970     12.47%     37.56% |     3561994     12.51%     50.07% |     3566083     12.52%     62.59% |     3557207     12.49%     75.09% |     3535831     12.42%     87.50% |     3558278     12.50%    100.00% (Unspecified)
system.caches.L2Cache_Controller.L1_PUTX::total     28473354                       (Unspecified)
system.caches.L2Cache_Controller.L2_Replacement |      450414     12.52%     12.52% |      448691     12.47%     25.00% |      449494     12.50%     37.49% |      450241     12.52%     50.01% |      449531     12.50%     62.51% |      449037     12.48%     74.99% |      447986     12.46%     87.45% |      451429     12.55%    100.00% (Unspecified)
system.caches.L2Cache_Controller.L2_Replacement::total      3596823                       (Unspecified)
system.caches.L2Cache_Controller.L2_Replacement_clean |     1121388     12.53%     12.53% |     1116074     12.47%     25.01% |     1118696     12.50%     37.51% |     1118010     12.50%     50.01% |     1118668     12.50%     62.51% |     1116349     12.48%     74.99% |     1117651     12.49%     87.48% |     1120501     12.52%    100.00% (Unspecified)
system.caches.L2Cache_Controller.L2_Replacement_clean::total      8947337                       (Unspecified)
system.caches.L2Cache_Controller.Mem_Data |     1588186     12.53%     12.53% |     1581149     12.47%     25.00% |     1584574     12.50%     37.51% |     1584635     12.50%     50.01% |     1584583     12.50%     62.51% |     1581770     12.48%     74.99% |     1582021     12.48%     87.47% |     1588314     12.53%    100.00% (Unspecified)
system.caches.L2Cache_Controller.Mem_Data::total     12675232                       (Unspecified)
system.caches.L2Cache_Controller.Mem_Ack |     1571802     12.53%     12.53% |     1564765     12.47%     25.00% |     1568190     12.50%     37.51% |     1568251     12.50%     50.01% |     1568199     12.50%     62.51% |     1565386     12.48%     74.99% |     1565637     12.48%     87.47% |     1571930     12.53%    100.00% (Unspecified)
system.caches.L2Cache_Controller.Mem_Ack::total     12544160                       (Unspecified)
system.caches.L2Cache_Controller.WB_Data |       81211     12.29%     12.29% |       84300     12.75%     25.04% |       84952     12.85%     37.90% |       83166     12.58%     50.48% |       80618     12.20%     62.68% |       79238     11.99%     74.67% |       87530     13.24%     87.91% |       79917     12.09%    100.00% (Unspecified)
system.caches.L2Cache_Controller.WB_Data::total       660932                       (Unspecified)
system.caches.L2Cache_Controller.WB_Data_clean |      103112     12.28%     12.28% |      102839     12.25%     24.53% |      112237     13.37%     37.90% |      102149     12.17%     50.06% |      101968     12.14%     62.21% |      101938     12.14%     74.35% |      111771     13.31%     87.66% |      103597     12.34%    100.00% (Unspecified)
system.caches.L2Cache_Controller.WB_Data_clean::total       839611                       (Unspecified)
system.caches.L2Cache_Controller.Ack     |       89315     12.31%     12.31% |       88223     12.16%     24.48% |       97397     13.43%     37.91% |       87318     12.04%     49.95% |       88189     12.16%     62.11% |       87730     12.10%     74.20% |       97906     13.50%     87.70% |       89188     12.30%    100.00% (Unspecified)
system.caches.L2Cache_Controller.Ack::total       725266                       (Unspecified)
system.caches.L2Cache_Controller.Ack_all |       90793     12.34%     12.34% |       89758     12.20%     24.55% |       98665     13.41%     37.96% |       88569     12.04%     50.01% |       89306     12.14%     62.15% |       88845     12.08%     74.23% |       98875     13.44%     87.67% |       90684     12.33%    100.00% (Unspecified)
system.caches.L2Cache_Controller.Ack_all::total       735495                       (Unspecified)
system.caches.L2Cache_Controller.Unblock |      184039     12.28%     12.28% |      186947     12.47%     24.75% |      197054     13.15%     37.90% |      185168     12.35%     50.25% |      182330     12.16%     62.42% |      180986     12.07%     74.49% |      199127     13.29%     87.78% |      183231     12.22%    100.00% (Unspecified)
system.caches.L2Cache_Controller.Unblock::total      1498882                       (Unspecified)
system.caches.L2Cache_Controller.Exclusive_Unblock |     3765362     12.54%     12.54% |     3766120     12.54%     25.08% |     3751177     12.49%     37.58% |     3763046     12.53%     50.11% |     3752749     12.50%     62.61% |     3742523     12.46%     75.07% |     3739162     12.45%     87.52% |     3745912     12.48%    100.00% (Unspecified)
system.caches.L2Cache_Controller.Exclusive_Unblock::total     30026051                       (Unspecified)
system.caches.L2Cache_Controller.NP.L1_GET_INSTR |        4625     13.95%     13.95% |        4266     12.87%     26.81% |        3690     11.13%     37.94% |        3695     11.14%     49.08% |        4178     12.60%     61.68% |        4187     12.63%     74.31% |        4035     12.17%     86.48% |        4483     13.52%    100.00% (Unspecified)
system.caches.L2Cache_Controller.NP.L1_GET_INSTR::total        33159                       (Unspecified)
system.caches.L2Cache_Controller.NP.L1_GETS |     1498324     12.53%     12.53% |     1491428     12.47%     25.00% |     1495415     12.50%     37.51% |     1495296     12.50%     50.01% |     1494852     12.50%     62.51% |     1492165     12.48%     74.99% |     1492840     12.48%     87.47% |     1498285     12.53%    100.00% (Unspecified)
system.caches.L2Cache_Controller.NP.L1_GETS::total     11958605                       (Unspecified)
system.caches.L2Cache_Controller.NP.L1_GETX |       85237     12.47%     12.47% |       85455     12.50%     24.97% |       85469     12.51%     37.48% |       85644     12.53%     50.01% |       85553     12.52%     62.53% |       85418     12.50%     75.03% |       85146     12.46%     87.48% |       85546     12.52%    100.00% (Unspecified)
system.caches.L2Cache_Controller.NP.L1_GETX::total       683468                       (Unspecified)
system.caches.L2Cache_Controller.SS.L1_GET_INSTR |        2661      3.49%      3.49% |       14621     19.15%     22.64% |       13373     17.52%     40.16% |        1853      2.43%     42.59% |        6142      8.05%     50.63% |       12109     15.86%     66.50% |       13609     17.83%     84.33% |       11963     15.67%    100.00% (Unspecified)
system.caches.L2Cache_Controller.SS.L1_GET_INSTR::total        76331                       (Unspecified)
system.caches.L2Cache_Controller.SS.L1_GETS |     2675711     12.56%     12.56% |     2618017     12.29%     24.85% |     2665612     12.51%     37.36% |     2667147     12.52%     49.87% |     2733455     12.83%     62.70% |     2689856     12.62%     75.33% |     2594470     12.18%     87.51% |     2662194     12.49%    100.00% (Unspecified)
system.caches.L2Cache_Controller.SS.L1_GETS::total     21306462                       (Unspecified)
system.caches.L2Cache_Controller.SS.L1_GETX |        2594     23.11%     23.11% |        1044      9.30%     32.41% |        1076      9.58%     41.99% |        1062      9.46%     51.45% |        1093      9.74%     61.19% |        1116      9.94%     71.13% |        2132     18.99%     90.12% |        1109      9.88%    100.00% (Unspecified)
system.caches.L2Cache_Controller.SS.L1_GETX::total        11226                       (Unspecified)
system.caches.L2Cache_Controller.SS.L1_UPGRADE |       93340     12.15%     12.15% |       98283     12.79%     24.94% |       98886     12.87%     37.81% |       97009     12.62%     50.43% |       94029     12.24%     62.67% |       93092     12.12%     74.78% |      100024     13.02%     87.80% |       93726     12.20%    100.00% (Unspecified)
system.caches.L2Cache_Controller.SS.L1_UPGRADE::total       768389                       (Unspecified)
system.caches.L2Cache_Controller.SS.L1_PUTX |           2     22.22%     22.22% |           0      0.00%     22.22% |           0      0.00%     22.22% |           2     22.22%     44.44% |           1     11.11%     55.56% |           2     22.22%     77.78% |           0      0.00%     77.78% |           2     22.22%    100.00% (Unspecified)
system.caches.L2Cache_Controller.SS.L1_PUTX::total            9                       (Unspecified)
system.caches.L2Cache_Controller.SS.L2_Replacement |       12922     12.75%     12.75% |       12505     12.34%     25.09% |       12602     12.43%     37.52% |       12685     12.52%     50.04% |       12697     12.53%     62.57% |       12589     12.42%     74.99% |       12613     12.45%     87.43% |       12736     12.57%    100.00% (Unspecified)
system.caches.L2Cache_Controller.SS.L2_Replacement::total       101349                       (Unspecified)
system.caches.L2Cache_Controller.SS.L2_Replacement_clean |       77590     12.26%     12.26% |       77053     12.18%     24.44% |       85926     13.58%     38.02% |       75714     11.97%     49.99% |       76416     12.08%     62.07% |       76057     12.02%     74.09% |       86136     13.61%     87.70% |       77792     12.30%    100.00% (Unspecified)
system.caches.L2Cache_Controller.SS.L2_Replacement_clean::total       632684                       (Unspecified)
system.caches.L2Cache_Controller.M.L1_GETS |     2027071     12.56%     12.56% |     2028062     12.57%     25.13% |     2019633     12.52%     37.65% |     2017868     12.51%     50.15% |     2023343     12.54%     62.69% |     2008275     12.45%     75.14% |     2001437     12.40%     87.55% |     2009602     12.45%    100.00% (Unspecified)
system.caches.L2Cache_Controller.M.L1_GETS::total     16135291                       (Unspecified)
system.caches.L2Cache_Controller.M.L1_GETX |       56571     13.00%     13.00% |       52708     12.11%     25.12% |       48961     11.25%     36.37% |       52650     12.10%     48.47% |       52091     11.97%     60.44% |       60563     13.92%     74.36% |       55816     12.83%     87.19% |       55738     12.81%    100.00% (Unspecified)
system.caches.L2Cache_Controller.M.L1_GETX::total       435098                       (Unspecified)
system.caches.L2Cache_Controller.M.L2_Replacement |      437388     12.52%     12.52% |      436101     12.48%     24.99% |      436844     12.50%     37.49% |      437503     12.52%     50.01% |      436752     12.50%     62.51% |      436351     12.49%     74.99% |      435289     12.46%     87.45% |      438598     12.55%    100.00% (Unspecified)
system.caches.L2Cache_Controller.M.L2_Replacement::total      3494826                       (Unspecified)
system.caches.L2Cache_Controller.M.L2_Replacement_clean |     1043337     12.55%     12.55% |     1038714     12.50%     25.05% |     1032546     12.42%     37.47% |     1042032     12.54%     50.01% |     1041885     12.53%     62.54% |     1040000     12.51%     75.05% |     1031299     12.41%     87.46% |     1042365     12.54%    100.00% (Unspecified)
system.caches.L2Cache_Controller.M.L2_Replacement_clean::total      8312178                       (Unspecified)
system.caches.L2Cache_Controller.MT.L1_GETS |      184039     12.28%     12.28% |      186947     12.47%     24.75% |      197054     13.15%     37.90% |      185168     12.35%     50.25% |      182330     12.16%     62.42% |      180986     12.07%     74.49% |      199127     13.29%     87.78% |      183231     12.22%    100.00% (Unspecified)
system.caches.L2Cache_Controller.MT.L1_GETS::total      1498882                       (Unspecified)
system.caches.L2Cache_Controller.MT.L1_GETX |        2318      6.71%      6.71% |        9212     26.68%     33.39% |        1866      5.40%     38.79% |       13540     39.21%     78.00% |        1860      5.39%     83.39% |        1917      5.55%     88.94% |        1871      5.42%     94.36% |        1949      5.64%    100.00% (Unspecified)
system.caches.L2Cache_Controller.MT.L1_GETX::total        34533                       (Unspecified)
system.caches.L2Cache_Controller.MT.L1_PUTX |     3576442     12.56%     12.56% |     3567545     12.53%     25.09% |     3549970     12.47%     37.56% |     3561990     12.51%     50.07% |     3566081     12.52%     62.59% |     3557203     12.49%     75.09% |     3535831     12.42%     87.50% |     3558274     12.50%    100.00% (Unspecified)
system.caches.L2Cache_Controller.MT.L1_PUTX::total     28473336                       (Unspecified)
system.caches.L2Cache_Controller.MT.L2_Replacement |         104     16.05%     16.05% |          85     13.12%     29.17% |          48      7.41%     36.57% |          53      8.18%     44.75% |          82     12.65%     57.41% |          97     14.97%     72.38% |          84     12.96%     85.34% |          95     14.66%    100.00% (Unspecified)
system.caches.L2Cache_Controller.MT.L2_Replacement::total          648                       (Unspecified)
system.caches.L2Cache_Controller.MT.L2_Replacement_clean |         461     18.63%     18.63% |         307     12.40%     31.03% |         224      9.05%     40.08% |         264     10.67%     50.75% |         367     14.83%     65.58% |         292     11.80%     77.37% |         216      8.73%     86.10% |         344     13.90%    100.00% (Unspecified)
system.caches.L2Cache_Controller.MT.L2_Replacement_clean::total         2475                       (Unspecified)
system.caches.L2Cache_Controller.M_I.L1_GET_INSTR |          20     24.39%     24.39% |           6      7.32%     31.71% |           9     10.98%     42.68% |          12     14.63%     57.32% |          24     29.27%     86.59% |          11     13.41%    100.00% |           0      0.00%    100.00% |           0      0.00%    100.00% (Unspecified)
system.caches.L2Cache_Controller.M_I.L1_GET_INSTR::total           82                       (Unspecified)
system.caches.L2Cache_Controller.M_I.L1_GETS |           5     15.15%     15.15% |          12     36.36%     51.52% |           1      3.03%     54.55% |           3      9.09%     63.64% |           5     15.15%     78.79% |           1      3.03%     81.82% |           1      3.03%     84.85% |           5     15.15%    100.00% (Unspecified)
system.caches.L2Cache_Controller.M_I.L1_GETS::total           33                       (Unspecified)
system.caches.L2Cache_Controller.M_I.L1_GETX |           0      0.00%      0.00% |           1      7.14%      7.14% |           0      0.00%      7.14% |           0      0.00%      7.14% |           7     50.00%     57.14% |           1      7.14%     64.29% |           0      0.00%     64.29% |           5     35.71%    100.00% (Unspecified)
system.caches.L2Cache_Controller.M_I.L1_GETX::total           14                       (Unspecified)
system.caches.L2Cache_Controller.M_I.Mem_Ack |     1571802     12.53%     12.53% |     1564765     12.47%     25.00% |     1568190     12.50%     37.51% |     1568251     12.50%     50.01% |     1568199     12.50%     62.51% |     1565386     12.48%     74.99% |     1565637     12.48%     87.47% |     1571930     12.53%    100.00% (Unspecified)
system.caches.L2Cache_Controller.M_I.Mem_Ack::total     12544160                       (Unspecified)
system.caches.L2Cache_Controller.MT_I.WB_Data |          94     15.99%     15.99% |          75     12.76%     28.74% |          43      7.31%     36.05% |          48      8.16%     44.22% |          74     12.59%     56.80% |          90     15.31%     72.11% |          75     12.76%     84.86% |          89     15.14%    100.00% (Unspecified)
system.caches.L2Cache_Controller.MT_I.WB_Data::total          588                       (Unspecified)
system.caches.L2Cache_Controller.MT_I.Ack_all |          10     16.67%     16.67% |          10     16.67%     33.33% |           5      8.33%     41.67% |           5      8.33%     50.00% |           8     13.33%     63.33% |           7     11.67%     75.00% |           9     15.00%     90.00% |           6     10.00%    100.00% (Unspecified)
system.caches.L2Cache_Controller.MT_I.Ack_all::total           60                       (Unspecified)
system.caches.L2Cache_Controller.MCT_I.WB_Data |         190     17.71%     17.71% |         117     10.90%     28.61% |          92      8.57%     37.19% |          99      9.23%     46.41% |         182     16.96%     63.37% |         100      9.32%     72.69% |          99      9.23%     81.92% |         194     18.08%    100.00% (Unspecified)
system.caches.L2Cache_Controller.MCT_I.WB_Data::total         1073                       (Unspecified)
system.caches.L2Cache_Controller.MCT_I.Ack_all |         271     19.33%     19.33% |         190     13.55%     32.88% |         132      9.42%     42.30% |         165     11.77%     54.07% |         185     13.20%     67.26% |         192     13.69%     80.96% |         117      8.35%     89.30% |         150     10.70%    100.00% (Unspecified)
system.caches.L2Cache_Controller.MCT_I.Ack_all::total         1402                       (Unspecified)
system.caches.L2Cache_Controller.I_I.L1_GETS |           1    100.00%    100.00% |           0      0.00%    100.00% |           0      0.00%    100.00% |           0      0.00%    100.00% |           0      0.00%    100.00% |           0      0.00%    100.00% |           0      0.00%    100.00% |           0      0.00%    100.00% (Unspecified)
system.caches.L2Cache_Controller.I_I.L1_GETS::total            1                       (Unspecified)
system.caches.L2Cache_Controller.I_I.Ack |       76393     12.24%     12.24% |       75718     12.14%     24.38% |       84795     13.59%     37.97% |       74633     11.96%     49.93% |       75492     12.10%     62.03% |       75141     12.04%     74.08% |       85293     13.67%     87.75% |       76452     12.25%    100.00% (Unspecified)
system.caches.L2Cache_Controller.I_I.Ack::total       623917                       (Unspecified)
system.caches.L2Cache_Controller.I_I.Ack_all |       77590     12.26%     12.26% |       77053     12.18%     24.44% |       85926     13.58%     38.02% |       75714     11.97%     49.99% |       76416     12.08%     62.07% |       76057     12.02%     74.09% |       86136     13.61%     87.70% |       77792     12.30%    100.00% (Unspecified)
system.caches.L2Cache_Controller.I_I.Ack_all::total       632684                       (Unspecified)
system.caches.L2Cache_Controller.S_I.L1_GETS |           0      0.00%      0.00% |           0      0.00%      0.00% |           0      0.00%      0.00% |           0      0.00%      0.00% |           0      0.00%      0.00% |           0      0.00%      0.00% |           1    100.00%    100.00% |           0      0.00%    100.00% (Unspecified)
system.caches.L2Cache_Controller.S_I.L1_GETS::total            1                       (Unspecified)
system.caches.L2Cache_Controller.S_I.Ack |       12922     12.75%     12.75% |       12505     12.34%     25.09% |       12602     12.43%     37.52% |       12685     12.52%     50.04% |       12697     12.53%     62.57% |       12589     12.42%     74.99% |       12613     12.45%     87.43% |       12736     12.57%    100.00% (Unspecified)
system.caches.L2Cache_Controller.S_I.Ack::total       101349                       (Unspecified)
system.caches.L2Cache_Controller.S_I.Ack_all |       12922     12.75%     12.75% |       12505     12.34%     25.09% |       12602     12.43%     37.52% |       12685     12.52%     50.04% |       12697     12.53%     62.57% |       12589     12.42%     74.99% |       12613     12.45%     87.43% |       12736     12.57%    100.00% (Unspecified)
system.caches.L2Cache_Controller.S_I.Ack_all::total       101349                       (Unspecified)
system.caches.L2Cache_Controller.ISS.L1_GETS |          93     16.64%     16.64% |          72     12.88%     29.52% |         129     23.08%     52.59% |          23      4.11%     56.71% |          72     12.88%     69.59% |          23      4.11%     73.70% |         104     18.60%     92.31% |          43      7.69%    100.00% (Unspecified)
system.caches.L2Cache_Controller.ISS.L1_GETS::total          559                       (Unspecified)
system.caches.L2Cache_Controller.ISS.Mem_Data |     1498231     12.53%     12.53% |     1491356     12.47%     25.00% |     1495286     12.50%     37.51% |     1495273     12.50%     50.01% |     1494780     12.50%     62.51% |     1492142     12.48%     74.99% |     1492736     12.48%     87.47% |     1498242     12.53%    100.00% (Unspecified)
system.caches.L2Cache_Controller.ISS.Mem_Data::total     11958046                       (Unspecified)
system.caches.L2Cache_Controller.IS.L1_GET_INSTR |        1709     16.43%     16.43% |        1465     14.09%     30.52% |        1038      9.98%     40.50% |        1223     11.76%     52.26% |        1386     13.33%     65.59% |        1260     12.12%     77.71% |        1131     10.88%     88.59% |        1187     11.41%    100.00% (Unspecified)
system.caches.L2Cache_Controller.IS.L1_GET_INSTR::total        10399                       (Unspecified)
system.caches.L2Cache_Controller.IS.Mem_Data |        4718     13.99%     13.99% |        4338     12.87%     26.86% |        3819     11.33%     38.18% |        3718     11.03%     49.21% |        4250     12.60%     61.82% |        4210     12.49%     74.30% |        4139     12.28%     86.58% |        4526     13.42%    100.00% (Unspecified)
system.caches.L2Cache_Controller.IS.Mem_Data::total        33718                       (Unspecified)
system.caches.L2Cache_Controller.IM.L1_GETS |           0      0.00%      0.00% |           0      0.00%      0.00% |           0      0.00%      0.00% |           0      0.00%      0.00% |           1    100.00%    100.00% |           0      0.00%    100.00% |           0      0.00%    100.00% |           0      0.00%    100.00% (Unspecified)
system.caches.L2Cache_Controller.IM.L1_GETS::total            1                       (Unspecified)
system.caches.L2Cache_Controller.IM.L1_GETX |           2     16.67%     16.67% |           2     16.67%     33.33% |           1      8.33%     41.67% |           1      8.33%     50.00% |           1      8.33%     58.33% |           1      8.33%     66.67% |           2     16.67%     83.33% |           2     16.67%    100.00% (Unspecified)
system.caches.L2Cache_Controller.IM.L1_GETX::total           12                       (Unspecified)
system.caches.L2Cache_Controller.IM.Mem_Data |       85237     12.47%     12.47% |       85455     12.50%     24.97% |       85469     12.51%     37.48% |       85644     12.53%     50.01% |       85553     12.52%     62.53% |       85418     12.50%     75.03% |       85146     12.46%     87.48% |       85546     12.52%    100.00% (Unspecified)
system.caches.L2Cache_Controller.IM.Mem_Data::total       683468                       (Unspecified)
system.caches.L2Cache_Controller.SS_MB.L1_GETS |           1      0.03%      0.03% |           0      0.00%      0.03% |           2      0.06%      0.09% |           2      0.06%      0.15% |           0      0.00%      0.15% |           1      0.03%      0.19% |        3234     99.81%    100.00% |           0      0.00%    100.00% (Unspecified)
[...]
system.timingCpu0.exec_context.thread_0.statExecutedInstType::FloatMemWrite      1693595      0.18%    100.00% # Class of executed instruction. (Count)
system.timingCpu0.exec_context.thread_0.statExecutedInstType::IprAccess            0      0.00%    100.00% # Class of executed instruction. (Count)
system.timingCpu0.exec_context.thread_0.statExecutedInstType::InstPrefetch            0      0.00%    100.00% # Class of executed instruction. (Count)
system.timingCpu0.exec_context.thread_0.statExecutedInstType::total    917296749                       # Class of executed instruction. (Count)
system.timingCpu0.mmu.dtb.rdAccesses        155244614                       # TLB accesses on read requests (Count)
system.timingCpu0.mmu.dtb.wrAccesses         15466078                       # TLB accesses on write requests (Count)
system.timingCpu0.mmu.dtb.rdMisses            1757082                       # TLB misses on read requests (Count)
system.timingCpu0.mmu.dtb.wrMisses               7797                       # TLB misses on write requests (Count)
system.timingCpu0.mmu.dtb.walker.power_state.pwrStateResidencyTicks::UNDEFINED 161378243471001                       # Cumulative time (in ticks) in various power states (Tick)
system.timingCpu0.mmu.itb.rdAccesses                0                       # TLB accesses on read requests (Count)
system.timingCpu0.mmu.itb.wrAccesses        741468873                       # TLB accesses on write requests (Count)
system.timingCpu0.mmu.itb.rdMisses                  0                       # TLB misses on read requests (Count)
system.timingCpu0.mmu.itb.wrMisses               3674                       # TLB misses on write requests (Count)
system.timingCpu0.mmu.itb.walker.power_state.pwrStateResidencyTicks::UNDEFINED 161378243471001                       # Cumulative time (in ticks) in various power states (Tick)
system.timingCpu0.power_state.numTransitions           28                       # Number of power state transitions (Count)
system.timingCpu0.power_state.ticksClkGated::samples           14                       # Distribution of time spent in the clock gated state (Tick)
system.timingCpu0.power_state.ticksClkGated::mean 880270321.428571                       # Distribution of time spent in the clock gated state (Tick)
system.timingCpu0.power_state.ticksClkGated::stdev 301670094.078245                       # Distribution of time spent in the clock gated state (Tick)
system.timingCpu0.power_state.ticksClkGated::1000-5e+10           14    100.00%    100.00% # Distribution of time spent in the clock gated state (Tick)
system.timingCpu0.power_state.ticksClkGated::min_value     47783500                       # Distribution of time spent in the clock gated state (Tick)
system.timingCpu0.power_state.ticksClkGated::max_value    997919750                       # Distribution of time spent in the clock gated state (Tick)
system.timingCpu0.power_state.ticksClkGated::total           14                       # Distribution of time spent in the clock gated state (Tick)
system.timingCpu0.power_state.pwrStateResidencyTicks::ON 1177229092001                       # Cumulative time (in ticks) in various power states (Tick)
system.timingCpu0.power_state.pwrStateResidencyTicks::CLK_GATED  12323784500                       # Cumulative time (in ticks) in various power states (Tick)
system.timingCpu0.power_state.pwrStateResidencyTicks::OFF 160188690594500                       # Cumulative time (in ticks) in various power states (Tick)
system.timingCpu0.thread_0.numInsts                 0                       # Number of Instructions committed (Count)
system.timingCpu0.thread_0.numOps                   0                       # Number of Ops committed (Count)
system.timingCpu0.thread_0.numMemRefs               0                       # Number of Memory References (Count)
system.timingCpu1.numCycles                4771003951                       # Number of cpu cycles simulated (Cycle)
system.timingCpu1.numWorkItemsStarted               0                       # Number of work items this cpu started (Count)
system.timingCpu1.numWorkItemsCompleted             2                       # Number of work items this cpu completed (Count)
system.timingCpu1.exec_context.thread_0.numInsts    567413962                       # Number of instructions committed (Count)
system.timingCpu1.exec_context.thread_0.numOps    923336637                       # Number of ops (including micro ops) committed (Count)
system.timingCpu1.exec_context.thread_0.numIntAluAccesses    851507235                       # Number of integer alu accesses (Count)
system.timingCpu1.exec_context.thread_0.numFpAluAccesses     80830866                       # Number of float alu accesses (Count)
system.timingCpu1.exec_context.thread_0.numVecAluAccesses            0                       # Number of vector alu accesses (Count)
system.timingCpu1.exec_context.thread_0.numCallsReturns       294299                       # Number of times a function call or return occured (Count)
system.timingCpu1.exec_context.thread_0.numCondCtrlInsts     92566387                       # Number of instructions that are conditional controls (Count)
system.timingCpu1.exec_context.thread_0.numIntInsts    851507235                       # Number of integer instructions (Count)
system.timingCpu1.exec_context.thread_0.numFpInsts     80830866                       # Number of float instructions (Count)
system.timingCpu1.exec_context.thread_0.numVecInsts            0                       # Number of vector instructions (Count)
system.timingCpu1.exec_context.thread_0.numIntRegReads   1184916745                       # Number of times the integer registers were read (Count)
system.timingCpu1.exec_context.thread_0.numIntRegWrites    621515086                       # Number of times the integer registers were written (Count)
system.timingCpu1.exec_context.thread_0.numFpRegReads     92570288                       # Number of times the floating registers were read (Count)
system.timingCpu1.exec_context.thread_0.numFpRegWrites     74214443                       # Number of times the floating registers were written (Count)
system.timingCpu1.exec_context.thread_0.numVecRegReads            0                       # Number of times the vector registers were read (Count)
system.timingCpu1.exec_context.thread_0.numVecRegWrites            0                       # Number of times the vector registers were written (Count)
system.timingCpu1.exec_context.thread_0.numVecPredRegReads            0                       # Number of times the predicate registers were read (Count)
system.timingCpu1.exec_context.thread_0.numVecPredRegWrites            0                       # Number of times the predicate registers were written (Count)
system.timingCpu1.exec_context.thread_0.numCCRegReads    618193953                       # Number of times the CC registers were read (Count)
system.timingCpu1.exec_context.thread_0.numCCRegWrites    405911493                       # Number of times the CC registers were written (Count)
system.timingCpu1.exec_context.thread_0.numMiscRegReads    364153471                       # Number of times the Misc registers were read (Count)
system.timingCpu1.exec_context.thread_0.numMiscRegWrites        59190                       # Number of times the Misc registers were written (Count)
system.timingCpu1.exec_context.thread_0.numMemRefs    170285664                       # Number of memory refs (Count)
system.timingCpu1.exec_context.thread_0.numLoadInsts    153840570                       # Number of load instructions (Count)
system.timingCpu1.exec_context.thread_0.numStoreInsts     16445094                       # Number of store instructions (Count)
system.timingCpu1.exec_context.thread_0.numIdleCycles 5217603.998898                       # Number of idle cycles (Cycle)
system.timingCpu1.exec_context.thread_0.numBusyCycles 4765786347.001102                       # Number of busy cycles (Cycle)
system.timingCpu1.exec_context.thread_0.notIdleFraction     0.998906                       # Percentage of non-idle cycles (Ratio)
system.timingCpu1.exec_context.thread_0.idleFraction     0.001094                       # Percentage of idle cycles (Ratio)
system.timingCpu1.exec_context.thread_0.numBranches     96956466                       # Number of branches fetched (Count)
system.timingCpu1.exec_context.thread_0.statExecutedInstType::No_OpClass       420929      0.05%      0.05% # Class of executed instruction. (Count)
system.timingCpu1.exec_context.thread_0.statExecutedInstType::IntAlu    694854579     75.25%     75.29% # Class of executed instruction. (Count)
system.timingCpu1.exec_context.thread_0.statExecutedInstType::IntMult        38075      0.00%     75.30% # Class of executed instruction. (Count)
system.timingCpu1.exec_context.thread_0.statExecutedInstType::IntDiv        57906      0.01%     75.30% # Class of executed instruction. (Count)
system.timingCpu1.exec_context.thread_0.statExecutedInstType::FloatAdd     20693327      2.24%     77.55% # Class of executed instruction. (Count)
system.timingCpu1.exec_context.thread_0.statExecutedInstType::FloatCmp            0      0.00%     77.55% # Class of executed instruction. (Count)
system.timingCpu1.exec_context.thread_0.statExecutedInstType::FloatCvt          176      0.00%     77.55% # Class of executed instruction. (Count)
system.timingCpu1.exec_context.thread_0.statExecutedInstType::FloatMult            0      0.00%     77.55% # Class of executed instruction. (Count)
system.timingCpu1.exec_context.thread_0.statExecutedInstType::FloatMultAcc            0      0.00%     77.55% # Class of executed instruction. (Count)
system.timingCpu1.exec_context.thread_0.statExecutedInstType::FloatDiv            0      0.00%     77.55% # Class of executed instruction. (Count)
system.timingCpu1.exec_context.thread_0.statExecutedInstType::FloatMisc            0      0.00%     77.55% # Class of executed instruction. (Count)
system.timingCpu1.exec_context.thread_0.statExecutedInstType::FloatSqrt            0      0.00%     77.55% # Class of executed instruction. (Count)
system.timingCpu1.exec_context.thread_0.statExecutedInstType::SimdAdd          148      0.00%     77.55% # Class of executed instruction. (Count)
system.timingCpu1.exec_context.thread_0.statExecutedInstType::SimdAddAcc            0      0.00%     77.55% # Class of executed instruction. (Count)
system.timingCpu1.exec_context.thread_0.statExecutedInstType::SimdAlu       645682      0.07%     77.61% # Class of executed instruction. (Count)
system.timingCpu1.exec_context.thread_0.statExecutedInstType::SimdCmp            0      0.00%     77.61% # Class of executed instruction. (Count)
system.timingCpu1.exec_context.thread_0.statExecutedInstType::SimdCvt          530      0.00%     77.62% # Class of executed instruction. (Count)
system.timingCpu1.exec_context.thread_0.statExecutedInstType::SimdMisc      3930125      0.43%     78.04% # Class of executed instruction. (Count)
system.timingCpu1.exec_context.thread_0.statExecutedInstType::SimdMult            0      0.00%     78.04% # Class of executed instruction. (Count)
system.timingCpu1.exec_context.thread_0.statExecutedInstType::SimdMultAcc            0      0.00%     78.04% # Class of executed instruction. (Count)
system.timingCpu1.exec_context.thread_0.statExecutedInstType::SimdShift          141      0.00%     78.04% # Class of executed instruction. (Count)
system.timingCpu1.exec_context.thread_0.statExecutedInstType::SimdShiftAcc            0      0.00%     78.04% # Class of executed instruction. (Count)
system.timingCpu1.exec_context.thread_0.statExecutedInstType::SimdDiv            0      0.00%     78.04% # Class of executed instruction. (Count)
system.timingCpu1.exec_context.thread_0.statExecutedInstType::SimdSqrt            0      0.00%     78.04% # Class of executed instruction. (Count)
system.timingCpu1.exec_context.thread_0.statExecutedInstType::SimdFloatAdd     12095613      1.31%     79.35% # Class of executed instruction. (Count)
system.timingCpu1.exec_context.thread_0.statExecutedInstType::SimdFloatAlu            0      0.00%     79.35% # Class of executed instruction. (Count)
system.timingCpu1.exec_context.thread_0.statExecutedInstType::SimdFloatCmp            1      0.00%     79.35% # Class of executed instruction. (Count)
system.timingCpu1.exec_context.thread_0.statExecutedInstType::SimdFloatCvt     12289706      1.33%     80.68% # Class of executed instruction. (Count)
system.timingCpu1.exec_context.thread_0.statExecutedInstType::SimdFloatDiv      4183950      0.45%     81.13% # Class of executed instruction. (Count)
system.timingCpu1.exec_context.thread_0.statExecutedInstType::SimdFloatMisc            0      0.00%     81.13% # Class of executed instruction. (Count)
system.timingCpu1.exec_context.thread_0.statExecutedInstType::SimdFloatMult      3921802      0.42%     81.56% # Class of executed instruction. (Count)
system.timingCpu1.exec_context.thread_0.statExecutedInstType::SimdFloatMultAcc            0      0.00%     81.56% # Class of executed instruction. (Count)
system.timingCpu1.exec_context.thread_0.statExecutedInstType::SimdFloatSqrt            0      0.00%     81.56% # Class of executed instruction. (Count)
system.timingCpu1.exec_context.thread_0.statExecutedInstType::SimdReduceAdd            0      0.00%     81.56% # Class of executed instruction. (Count)
system.timingCpu1.exec_context.thread_0.statExecutedInstType::SimdReduceAlu            0      0.00%     81.56% # Class of executed instruction. (Count)
system.timingCpu1.exec_context.thread_0.statExecutedInstType::SimdReduceCmp            0      0.00%     81.56% # Class of executed instruction. (Count)
system.timingCpu1.exec_context.thread_0.statExecutedInstType::SimdFloatReduceAdd            0      0.00%     81.56% # Class of executed instruction. (Count)
system.timingCpu1.exec_context.thread_0.statExecutedInstType::SimdFloatReduceCmp            0      0.00%     81.56% # Class of executed instruction. (Count)
system.timingCpu1.exec_context.thread_0.statExecutedInstType::SimdAes            0      0.00%     81.56% # Class of executed instruction. (Count)
system.timingCpu1.exec_context.thread_0.statExecutedInstType::SimdAesMix            0      0.00%     81.56% # Class of executed instruction. (Count)
system.timingCpu1.exec_context.thread_0.statExecutedInstType::SimdSha1Hash            0      0.00%     81.56% # Class of executed instruction. (Count)
system.timingCpu1.exec_context.thread_0.statExecutedInstType::SimdSha1Hash2            0      0.00%     81.56% # Class of executed instruction. (Count)
system.timingCpu1.exec_context.thread_0.statExecutedInstType::SimdSha256Hash            0      0.00%     81.56% # Class of executed instruction. (Count)
system.timingCpu1.exec_context.thread_0.statExecutedInstType::SimdSha256Hash2            0      0.00%     81.56% # Class of executed instruction. (Count)
system.timingCpu1.exec_context.thread_0.statExecutedInstType::SimdShaSigma2            0      0.00%     81.56% # Class of executed instruction. (Count)
system.timingCpu1.exec_context.thread_0.statExecutedInstType::SimdShaSigma3            0      0.00%     81.56% # Class of executed instruction. (Count)
system.timingCpu1.exec_context.thread_0.statExecutedInstType::SimdPredAlu            0      0.00%     81.56% # Class of executed instruction. (Count)
system.timingCpu1.exec_context.thread_0.statExecutedInstType::MemRead    132933196     14.40%     95.95% # Class of executed instruction. (Count)
system.timingCpu1.exec_context.thread_0.statExecutedInstType::MemWrite     14282985      1.55%     97.50% # Class of executed instruction. (Count)
system.timingCpu1.exec_context.thread_0.statExecutedInstType::FloatMemRead     20907374      2.26%     99.77% # Class of executed instruction. (Count)
system.timingCpu1.exec_context.thread_0.statExecutedInstType::FloatMemWrite      2162109      0.23%    100.00% # Class of executed instruction. (Count)
system.timingCpu1.exec_context.thread_0.statExecutedInstType::IprAccess            0      0.00%    100.00% # Class of executed instruction. (Count)
system.timingCpu1.exec_context.thread_0.statExecutedInstType::InstPrefetch            0      0.00%    100.00% # Class of executed instruction. (Count)
system.timingCpu1.exec_context.thread_0.statExecutedInstType::total    923418354                       # Class of executed instruction. (Count)
system.timingCpu1.mmu.dtb.rdAccesses        155617970                       # TLB accesses on read requests (Count)
system.timingCpu1.mmu.dtb.wrAccesses         16452174                       # TLB accesses on write requests (Count)
system.timingCpu1.mmu.dtb.rdMisses            1742035                       # TLB misses on read requests (Count)
system.timingCpu1.mmu.dtb.wrMisses               7940                       # TLB misses on write requests (Count)
system.timingCpu1.mmu.dtb.walker.power_state.pwrStateResidencyTicks::UNDEFINED 161378243471001                       # Cumulative time (in ticks) in various power states (Tick)
system.timingCpu1.mmu.itb.rdAccesses                0                       # TLB accesses on read requests (Count)
system.timingCpu1.mmu.itb.wrAccesses        745683385                       # TLB accesses on write requests (Count)
system.timingCpu1.mmu.itb.rdMisses                  0                       # TLB misses on read requests (Count)
system.timingCpu1.mmu.itb.wrMisses               4778                       # TLB misses on write requests (Count)
system.timingCpu1.mmu.itb.walker.power_state.pwrStateResidencyTicks::UNDEFINED 161378243471001                       # Cumulative time (in ticks) in various power states (Tick)
system.timingCpu1.power_state.numTransitions            4                       # Number of power state transitions (Count)
system.timingCpu1.power_state.ticksClkGated::samples            2                       # Distribution of time spent in the clock gated state (Tick)
system.timingCpu1.power_state.ticksClkGated::mean    652200500                       # Distribution of time spent in the clock gated state (Tick)
system.timingCpu1.power_state.ticksClkGated::stdev 243983305.761122                       # Distribution of time spent in the clock gated state (Tick)
system.timingCpu1.power_state.ticksClkGated::1000-5e+10            2    100.00%    100.00% # Distribution of time spent in the clock gated state (Tick)
system.timingCpu1.power_state.ticksClkGated::min_value    479678250                       # Distribution of time spent in the clock gated state (Tick)
system.timingCpu1.power_state.ticksClkGated::max_value    824722750                       # Distribution of time spent in the clock gated state (Tick)
system.timingCpu1.power_state.ticksClkGated::total            2                       # Distribution of time spent in the clock gated state (Tick)
system.timingCpu1.power_state.pwrStateResidencyTicks::ON 1167418748251                       # Cumulative time (in ticks) in various power states (Tick)
system.timingCpu1.power_state.pwrStateResidencyTicks::CLK_GATED   1304401000                       # Cumulative time (in ticks) in various power states (Tick)
system.timingCpu1.power_state.pwrStateResidencyTicks::OFF 160209520321750                       # Cumulative time (in ticks) in various power states (Tick)
system.timingCpu1.thread_0.numInsts                 0                       # Number of Instructions committed (Count)
system.timingCpu1.thread_0.numOps                   0                       # Number of Ops committed (Count)
system.timingCpu1.thread_0.numMemRefs               0                       # Number of Memory References (Count)
system.workload.inst.arm                            0                       # number of arm instructions executed (Count)
system.workload.inst.quiesce                        0                       # number of quiesce instructions executed (Count)

---------- End Simulation Statistics   ----------
