
---------- Begin Simulation Statistics ----------
simSeconds                                   0.010000                       # Number of seconds simulated (Second)
simTicks                                  10000004000                       # Number of ticks simulated (Tick)
finalTick                                 10000004000                       # Number of ticks from beginning of simulation (restored from checkpoints and never reset) (Tick)
simFreq                                  1000000000000                       # The number of ticks per simulated second ((Tick/Second))
hostSeconds                                     76.76                       # Real time elapsed on the host (Second)
hostTickRate                                130282824                       # The number of ticks simulated per host second (ticks/s) ((Tick/Second))
hostMemory                                    3276144                       # Number of bytes of host memory used (Byte)
system.clk_domain.clock                           250                       # Clock period in ticks (Tick)
system.clk_domain.voltage_domain.voltage            1                       # Voltage in Volts (Volt)
system.far_mem_ctrl.priorityMinLatency   0.000000000000                       # per QoS priority minimum request to response latency (Second)
system.far_mem_ctrl.priorityMaxLatency   0.000000000000                       # per QoS priority maximum request to response latency (Second)
system.far_mem_ctrl.numReadWriteTurnArounds            0                       # Number of turnarounds from READ to WRITE (Count)
system.far_mem_ctrl.numWriteReadTurnArounds            0                       # Number of turnarounds from WRITE to READ (Count)
system.far_mem_ctrl.numStayReadState             2568                       # Number of times bus staying in READ state (Count)
system.far_mem_ctrl.numStayWriteState               0                       # Number of times bus staying in WRITE state (Count)
system.far_mem_ctrl.readReqs                        0                       # Number of read requests accepted (Count)
system.far_mem_ctrl.writeReqs                       0                       # Number of write requests accepted (Count)
system.far_mem_ctrl.readBursts                      0                       # Number of controller read bursts, including those serviced by the write queue (Count)
system.far_mem_ctrl.writeBursts                     0                       # Number of controller write bursts, including those merged in the write queue (Count)
system.far_mem_ctrl.servicedByWrQ                   0                       # Number of controller read bursts serviced by the write queue (Count)
system.far_mem_ctrl.mergedWrBursts                  0                       # Number of controller write bursts merged with an existing one (Count)
system.far_mem_ctrl.avgRdQLen                    0.00                       # Average read queue length when enqueuing ((Count/Tick))
system.far_mem_ctrl.avgWrQLen                    0.00                       # Average write queue length when enqueuing ((Count/Tick))
system.far_mem_ctrl.numRdRetry                      0                       # Number of times read queue was full causing retry (Count)
system.far_mem_ctrl.numWrRetry                      0                       # Number of times write queue was full causing retry (Count)
system.far_mem_ctrl.readPktSize::0                  0                       # Read request sizes (log2) (Count)
system.far_mem_ctrl.readPktSize::1                  0                       # Read request sizes (log2) (Count)
system.far_mem_ctrl.readPktSize::2                  0                       # Read request sizes (log2) (Count)
system.far_mem_ctrl.readPktSize::3                  0                       # Read request sizes (log2) (Count)
system.far_mem_ctrl.readPktSize::4                  0                       # Read request sizes (log2) (Count)
system.far_mem_ctrl.readPktSize::5                  0                       # Read request sizes (log2) (Count)
system.far_mem_ctrl.readPktSize::6                  0                       # Read request sizes (log2) (Count)
system.far_mem_ctrl.writePktSize::0                 0                       # Write request sizes (log2) (Count)
system.far_mem_ctrl.writePktSize::1                 0                       # Write request sizes (log2) (Count)
system.far_mem_ctrl.writePktSize::2                 0                       # Write request sizes (log2) (Count)
system.far_mem_ctrl.writePktSize::3                 0                       # Write request sizes (log2) (Count)
system.far_mem_ctrl.writePktSize::4                 0                       # Write request sizes (log2) (Count)
system.far_mem_ctrl.writePktSize::5                 0                       # Write request sizes (log2) (Count)
system.far_mem_ctrl.writePktSize::6                 0                       # Write request sizes (log2) (Count)
system.far_mem_ctrl.rdQLenPdf::0                    0                       # What read queue length does an incoming req see (Count)
system.far_mem_ctrl.rdQLenPdf::1                    0                       # What read queue length does an incoming req see (Count)
system.far_mem_ctrl.rdQLenPdf::2                    0                       # What read queue length does an incoming req see (Count)
system.far_mem_ctrl.rdQLenPdf::3                    0                       # What read queue length does an incoming req see (Count)
system.far_mem_ctrl.rdQLenPdf::4                    0                       # What read queue length does an incoming req see (Count)
system.far_mem_ctrl.rdQLenPdf::5                    0                       # What read queue length does an incoming req see (Count)
system.far_mem_ctrl.rdQLenPdf::6                    0                       # What read queue length does an incoming req see (Count)
system.far_mem_ctrl.rdQLenPdf::7                    0                       # What read queue length does an incoming req see (Count)
system.far_mem_ctrl.rdQLenPdf::8                    0                       # What read queue length does an incoming req see (Count)
system.far_mem_ctrl.rdQLenPdf::9                    0                       # What read queue length does an incoming req see (Count)
system.far_mem_ctrl.rdQLenPdf::10                   0                       # What read queue length does an incoming req see (Count)
system.far_mem_ctrl.rdQLenPdf::11                   0                       # What read queue length does an incoming req see (Count)
system.far_mem_ctrl.rdQLenPdf::12                   0                       # What read queue length does an incoming req see (Count)
system.far_mem_ctrl.rdQLenPdf::13                   0                       # What read queue length does an incoming req see (Count)
system.far_mem_ctrl.rdQLenPdf::14                   0                       # What read queue length does an incoming req see (Count)
system.far_mem_ctrl.rdQLenPdf::15                   0                       # What read queue length does an incoming req see (Count)
system.far_mem_ctrl.rdQLenPdf::16                   0                       # What read queue length does an incoming req see (Count)
system.far_mem_ctrl.rdQLenPdf::17                   0                       # What read queue length does an incoming req see (Count)
system.far_mem_ctrl.rdQLenPdf::18                   0                       # What read queue length does an incoming req see (Count)
system.far_mem_ctrl.rdQLenPdf::19                   0                       # What read queue length does an incoming req see (Count)
system.far_mem_ctrl.rdQLenPdf::20                   0                       # What read queue length does an incoming req see (Count)
system.far_mem_ctrl.rdQLenPdf::21                   0                       # What read queue length does an incoming req see (Count)
system.far_mem_ctrl.rdQLenPdf::22                   0                       # What read queue length does an incoming req see (Count)
system.far_mem_ctrl.rdQLenPdf::23                   0                       # What read queue length does an incoming req see (Count)
system.far_mem_ctrl.rdQLenPdf::24                   0                       # What read queue length does an incoming req see (Count)
system.far_mem_ctrl.rdQLenPdf::25                   0                       # What read queue length does an incoming req see (Count)
system.far_mem_ctrl.rdQLenPdf::26                   0                       # What read queue length does an incoming req see (Count)
system.far_mem_ctrl.rdQLenPdf::27                   0                       # What read queue length does an incoming req see (Count)
system.far_mem_ctrl.rdQLenPdf::28                   0                       # What read queue length does an incoming req see (Count)
system.far_mem_ctrl.rdQLenPdf::29                   0                       # What read queue length does an incoming req see (Count)
system.far_mem_ctrl.rdQLenPdf::30                   0                       # What read queue length does an incoming req see (Count)
system.far_mem_ctrl.rdQLenPdf::31                   0                       # What read queue length does an incoming req see (Count)
system.far_mem_ctrl.rdQLenPdf::32                   0                       # What read queue length does an incoming req see (Count)
system.far_mem_ctrl.rdQLenPdf::33                   0                       # What read queue length does an incoming req see (Count)
system.far_mem_ctrl.rdQLenPdf::34                   0                       # What read queue length does an incoming req see (Count)
system.far_mem_ctrl.rdQLenPdf::35                   0                       # What read queue length does an incoming req see (Count)
system.far_mem_ctrl.rdQLenPdf::36                   0                       # What read queue length does an incoming req see (Count)
system.far_mem_ctrl.rdQLenPdf::37                   0                       # What read queue length does an incoming req see (Count)
system.far_mem_ctrl.rdQLenPdf::38                   0                       # What read queue length does an incoming req see (Count)
system.far_mem_ctrl.rdQLenPdf::39                   0                       # What read queue length does an incoming req see (Count)
system.far_mem_ctrl.rdQLenPdf::40                   0                       # What read queue length does an incoming req see (Count)
system.far_mem_ctrl.rdQLenPdf::41                   0                       # What read queue length does an incoming req see (Count)
system.far_mem_ctrl.rdQLenPdf::42                   0                       # What read queue length does an incoming req see (Count)
system.far_mem_ctrl.rdQLenPdf::43                   0                       # What read queue length does an incoming req see (Count)
system.far_mem_ctrl.rdQLenPdf::44                   0                       # What read queue length does an incoming req see (Count)
system.far_mem_ctrl.rdQLenPdf::45                   0                       # What read queue length does an incoming req see (Count)
system.far_mem_ctrl.rdQLenPdf::46                   0                       # What read queue length does an incoming req see (Count)
system.far_mem_ctrl.rdQLenPdf::47                   0                       # What read queue length does an incoming req see (Count)
system.far_mem_ctrl.rdQLenPdf::48                   0                       # What read queue length does an incoming req see (Count)
system.far_mem_ctrl.rdQLenPdf::49                   0                       # What read queue length does an incoming req see (Count)
system.far_mem_ctrl.rdQLenPdf::50                   0                       # What read queue length does an incoming req see (Count)
system.far_mem_ctrl.rdQLenPdf::51                   0                       # What read queue length does an incoming req see (Count)
system.far_mem_ctrl.rdQLenPdf::52                   0                       # What read queue length does an incoming req see (Count)
system.far_mem_ctrl.rdQLenPdf::53                   0                       # What read queue length does an incoming req see (Count)
system.far_mem_ctrl.rdQLenPdf::54                   0                       # What read queue length does an incoming req see (Count)
system.far_mem_ctrl.rdQLenPdf::55                   0                       # What read queue length does an incoming req see (Count)
system.far_mem_ctrl.rdQLenPdf::56                   0                       # What read queue length does an incoming req see (Count)
system.far_mem_ctrl.rdQLenPdf::57                   0                       # What read queue length does an incoming req see (Count)
system.far_mem_ctrl.rdQLenPdf::58                   0                       # What read queue length does an incoming req see (Count)
system.far_mem_ctrl.rdQLenPdf::59                   0                       # What read queue length does an incoming req see (Count)
system.far_mem_ctrl.rdQLenPdf::60                   0                       # What read queue length does an incoming req see (Count)
system.far_mem_ctrl.rdQLenPdf::61                   0                       # What read queue length does an incoming req see (Count)
system.far_mem_ctrl.rdQLenPdf::62                   0                       # What read queue length does an incoming req see (Count)
system.far_mem_ctrl.rdQLenPdf::63                   0                       # What read queue length does an incoming req see (Count)
system.far_mem_ctrl.wrQLenPdf::0                    0                       # What write queue length does an incoming req see (Count)
system.far_mem_ctrl.wrQLenPdf::1                    0                       # What write queue length does an incoming req see (Count)
system.far_mem_ctrl.wrQLenPdf::2                    0                       # What write queue length does an incoming req see (Count)
system.far_mem_ctrl.wrQLenPdf::3                    0                       # What write queue length does an incoming req see (Count)
system.far_mem_ctrl.wrQLenPdf::4                    0                       # What write queue length does an incoming req see (Count)
system.far_mem_ctrl.wrQLenPdf::5                    0                       # What write queue length does an incoming req see (Count)
system.far_mem_ctrl.wrQLenPdf::6                    0                       # What write queue length does an incoming req see (Count)
system.far_mem_ctrl.wrQLenPdf::7                    0                       # What write queue length does an incoming req see (Count)
system.far_mem_ctrl.wrQLenPdf::8                    0                       # What write queue length does an incoming req see (Count)
system.far_mem_ctrl.wrQLenPdf::9                    0                       # What write queue length does an incoming req see (Count)
system.far_mem_ctrl.wrQLenPdf::10                   0                       # What write queue length does an incoming req see (Count)
system.far_mem_ctrl.wrQLenPdf::11                   0                       # What write queue length does an incoming req see (Count)
system.far_mem_ctrl.wrQLenPdf::12                   0                       # What write queue length does an incoming req see (Count)
system.far_mem_ctrl.wrQLenPdf::13                   0                       # What write queue length does an incoming req see (Count)
system.far_mem_ctrl.wrQLenPdf::14                   0                       # What write queue length does an incoming req see (Count)
system.far_mem_ctrl.wrQLenPdf::15                   0                       # What write queue length does an incoming req see (Count)
system.far_mem_ctrl.wrQLenPdf::16                   0                       # What write queue length does an incoming req see (Count)
system.far_mem_ctrl.wrQLenPdf::17                   0                       # What write queue length does an incoming req see (Count)
system.far_mem_ctrl.wrQLenPdf::18                   0                       # What write queue length does an incoming req see (Count)
system.far_mem_ctrl.wrQLenPdf::19                   0                       # What write queue length does an incoming req see (Count)
system.far_mem_ctrl.wrQLenPdf::20                   0                       # What write queue length does an incoming req see (Count)
system.far_mem_ctrl.wrQLenPdf::21                   0                       # What write queue length does an incoming req see (Count)
system.far_mem_ctrl.wrQLenPdf::22                   0                       # What write queue length does an incoming req see (Count)
system.far_mem_ctrl.wrQLenPdf::23                   0                       # What write queue length does an incoming req see (Count)
system.far_mem_ctrl.wrQLenPdf::24                   0                       # What write queue length does an incoming req see (Count)
system.far_mem_ctrl.wrQLenPdf::25                   0                       # What write queue length does an incoming req see (Count)
system.far_mem_ctrl.wrQLenPdf::26                   0                       # What write queue length does an incoming req see (Count)
system.far_mem_ctrl.wrQLenPdf::27                   0                       # What write queue length does an incoming req see (Count)
system.far_mem_ctrl.wrQLenPdf::28                   0                       # What write queue length does an incoming req see (Count)
system.far_mem_ctrl.wrQLenPdf::29                   0                       # What write queue length does an incoming req see (Count)
system.far_mem_ctrl.wrQLenPdf::30                   0                       # What write queue length does an incoming req see (Count)
system.far_mem_ctrl.wrQLenPdf::31                   0                       # What write queue length does an incoming req see (Count)
system.far_mem_ctrl.wrQLenPdf::32                   0                       # What write queue length does an incoming req see (Count)
system.far_mem_ctrl.wrQLenPdf::33                   0                       # What write queue length does an incoming req see (Count)
system.far_mem_ctrl.wrQLenPdf::34                   0                       # What write queue length does an incoming req see (Count)
system.far_mem_ctrl.wrQLenPdf::35                   0                       # What write queue length does an incoming req see (Count)
system.far_mem_ctrl.wrQLenPdf::36                   0                       # What write queue length does an incoming req see (Count)
system.far_mem_ctrl.wrQLenPdf::37                   0                       # What write queue length does an incoming req see (Count)
system.far_mem_ctrl.wrQLenPdf::38                   0                       # What write queue length does an incoming req see (Count)
system.far_mem_ctrl.wrQLenPdf::39                   0                       # What write queue length does an incoming req see (Count)
system.far_mem_ctrl.wrQLenPdf::40                   0                       # What write queue length does an incoming req see (Count)
system.far_mem_ctrl.wrQLenPdf::41                   0                       # What write queue length does an incoming req see (Count)
system.far_mem_ctrl.wrQLenPdf::42                   0                       # What write queue length does an incoming req see (Count)
system.far_mem_ctrl.wrQLenPdf::43                   0                       # What write queue length does an incoming req see (Count)
system.far_mem_ctrl.wrQLenPdf::44                   0                       # What write queue length does an incoming req see (Count)
system.far_mem_ctrl.wrQLenPdf::45                   0                       # What write queue length does an incoming req see (Count)
system.far_mem_ctrl.wrQLenPdf::46                   0                       # What write queue length does an incoming req see (Count)
system.far_mem_ctrl.wrQLenPdf::47                   0                       # What write queue length does an incoming req see (Count)
system.far_mem_ctrl.wrQLenPdf::48                   0                       # What write queue length does an incoming req see (Count)
system.far_mem_ctrl.wrQLenPdf::49                   0                       # What write queue length does an incoming req see (Count)
system.far_mem_ctrl.wrQLenPdf::50                   0                       # What write queue length does an incoming req see (Count)
system.far_mem_ctrl.wrQLenPdf::51                   0                       # What write queue length does an incoming req see (Count)
system.far_mem_ctrl.wrQLenPdf::52                   0                       # What write queue length does an incoming req see (Count)
system.far_mem_ctrl.wrQLenPdf::53                   0                       # What write queue length does an incoming req see (Count)
system.far_mem_ctrl.wrQLenPdf::54                   0                       # What write queue length does an incoming req see (Count)
system.far_mem_ctrl.wrQLenPdf::55                   0                       # What write queue length does an incoming req see (Count)
system.far_mem_ctrl.wrQLenPdf::56                   0                       # What write queue length does an incoming req see (Count)
system.far_mem_ctrl.wrQLenPdf::57                   0                       # What write queue length does an incoming req see (Count)
system.far_mem_ctrl.wrQLenPdf::58                   0                       # What write queue length does an incoming req see (Count)
system.far_mem_ctrl.wrQLenPdf::59                   0                       # What write queue length does an incoming req see (Count)
system.far_mem_ctrl.wrQLenPdf::60                   0                       # What write queue length does an incoming req see (Count)
system.far_mem_ctrl.wrQLenPdf::61                   0                       # What write queue length does an incoming req see (Count)
system.far_mem_ctrl.wrQLenPdf::62                   0                       # What write queue length does an incoming req see (Count)
system.far_mem_ctrl.wrQLenPdf::63                   0                       # What write queue length does an incoming req see (Count)
system.far_mem_ctrl.wrQLenPdf::64                   0                       # What write queue length does an incoming req see (Count)
system.far_mem_ctrl.wrQLenPdf::65                   0                       # What write queue length does an incoming req see (Count)
system.far_mem_ctrl.wrQLenPdf::66                   0                       # What write queue length does an incoming req see (Count)
system.far_mem_ctrl.wrQLenPdf::67                   0                       # What write queue length does an incoming req see (Count)
system.far_mem_ctrl.wrQLenPdf::68                   0                       # What write queue length does an incoming req see (Count)
system.far_mem_ctrl.wrQLenPdf::69                   0                       # What write queue length does an incoming req see (Count)
system.far_mem_ctrl.wrQLenPdf::70                   0                       # What write queue length does an incoming req see (Count)
system.far_mem_ctrl.wrQLenPdf::71                   0                       # What write queue length does an incoming req see (Count)
system.far_mem_ctrl.wrQLenPdf::72                   0                       # What write queue length does an incoming req see (Count)
system.far_mem_ctrl.wrQLenPdf::73                   0                       # What write queue length does an incoming req see (Count)
system.far_mem_ctrl.wrQLenPdf::74                   0                       # What write queue length does an incoming req see (Count)
system.far_mem_ctrl.wrQLenPdf::75                   0                       # What write queue length does an incoming req see (Count)
system.far_mem_ctrl.wrQLenPdf::76                   0                       # What write queue length does an incoming req see (Count)
system.far_mem_ctrl.wrQLenPdf::77                   0                       # What write queue length does an incoming req see (Count)
system.far_mem_ctrl.wrQLenPdf::78                   0                       # What write queue length does an incoming req see (Count)
system.far_mem_ctrl.wrQLenPdf::79                   0                       # What write queue length does an incoming req see (Count)
system.far_mem_ctrl.wrQLenPdf::80                   0                       # What write queue length does an incoming req see (Count)
system.far_mem_ctrl.wrQLenPdf::81                   0                       # What write queue length does an incoming req see (Count)
system.far_mem_ctrl.wrQLenPdf::82                   0                       # What write queue length does an incoming req see (Count)
system.far_mem_ctrl.wrQLenPdf::83                   0                       # What write queue length does an incoming req see (Count)
system.far_mem_ctrl.wrQLenPdf::84                   0                       # What write queue length does an incoming req see (Count)
system.far_mem_ctrl.wrQLenPdf::85                   0                       # What write queue length does an incoming req see (Count)
system.far_mem_ctrl.wrQLenPdf::86                   0                       # What write queue length does an incoming req see (Count)
system.far_mem_ctrl.wrQLenPdf::87                   0                       # What write queue length does an incoming req see (Count)
system.far_mem_ctrl.wrQLenPdf::88                   0                       # What write queue length does an incoming req see (Count)
system.far_mem_ctrl.wrQLenPdf::89                   0                       # What write queue length does an incoming req see (Count)
system.far_mem_ctrl.wrQLenPdf::90                   0                       # What write queue length does an incoming req see (Count)
system.far_mem_ctrl.wrQLenPdf::91                   0                       # What write queue length does an incoming req see (Count)
system.far_mem_ctrl.wrQLenPdf::92                   0                       # What write queue length does an incoming req see (Count)
system.far_mem_ctrl.wrQLenPdf::93                   0                       # What write queue length does an incoming req see (Count)
system.far_mem_ctrl.wrQLenPdf::94                   0                       # What write queue length does an incoming req see (Count)
system.far_mem_ctrl.wrQLenPdf::95                   0                       # What write queue length does an incoming req see (Count)
system.far_mem_ctrl.wrQLenPdf::96                   0                       # What write queue length does an incoming req see (Count)
system.far_mem_ctrl.wrQLenPdf::97                   0                       # What write queue length does an incoming req see (Count)
system.far_mem_ctrl.wrQLenPdf::98                   0                       # What write queue length does an incoming req see (Count)
system.far_mem_ctrl.wrQLenPdf::99                   0                       # What write queue length does an incoming req see (Count)
system.far_mem_ctrl.wrQLenPdf::100                  0                       # What write queue length does an incoming req see (Count)
system.far_mem_ctrl.wrQLenPdf::101                  0                       # What write queue length does an incoming req see (Count)
system.far_mem_ctrl.wrQLenPdf::102                  0                       # What write queue length does an incoming req see (Count)
system.far_mem_ctrl.wrQLenPdf::103                  0                       # What write queue length does an incoming req see (Count)
system.far_mem_ctrl.wrQLenPdf::104                  0                       # What write queue length does an incoming req see (Count)
system.far_mem_ctrl.wrQLenPdf::105                  0                       # What write queue length does an incoming req see (Count)
system.far_mem_ctrl.wrQLenPdf::106                  0                       # What write queue length does an incoming req see (Count)
system.far_mem_ctrl.wrQLenPdf::107                  0                       # What write queue length does an incoming req see (Count)
system.far_mem_ctrl.wrQLenPdf::108                  0                       # What write queue length does an incoming req see (Count)
system.far_mem_ctrl.wrQLenPdf::109                  0                       # What write queue length does an incoming req see (Count)
system.far_mem_ctrl.wrQLenPdf::110                  0                       # What write queue length does an incoming req see (Count)
system.far_mem_ctrl.wrQLenPdf::111                  0                       # What write queue length does an incoming req see (Count)
system.far_mem_ctrl.wrQLenPdf::112                  0                       # What write queue length does an incoming req see (Count)
system.far_mem_ctrl.wrQLenPdf::113                  0                       # What write queue length does an incoming req see (Count)
system.far_mem_ctrl.wrQLenPdf::114                  0                       # What write queue length does an incoming req see (Count)
system.far_mem_ctrl.wrQLenPdf::115                  0                       # What write queue length does an incoming req see (Count)
system.far_mem_ctrl.wrQLenPdf::116                  0                       # What write queue length does an incoming req see (Count)
system.far_mem_ctrl.wrQLenPdf::117                  0                       # What write queue length does an incoming req see (Count)
system.far_mem_ctrl.wrQLenPdf::118                  0                       # What write queue length does an incoming req see (Count)
system.far_mem_ctrl.wrQLenPdf::119                  0                       # What write queue length does an incoming req see (Count)
system.far_mem_ctrl.wrQLenPdf::120                  0                       # What write queue length does an incoming req see (Count)
system.far_mem_ctrl.wrQLenPdf::121                  0                       # What write queue length does an incoming req see (Count)
system.far_mem_ctrl.wrQLenPdf::122                  0                       # What write queue length does an incoming req see (Count)
system.far_mem_ctrl.wrQLenPdf::123                  0                       # What write queue length does an incoming req see (Count)
system.far_mem_ctrl.wrQLenPdf::124                  0                       # What write queue length does an incoming req see (Count)
system.far_mem_ctrl.wrQLenPdf::125                  0                       # What write queue length does an incoming req see (Count)
system.far_mem_ctrl.wrQLenPdf::126                  0                       # What write queue length does an incoming req see (Count)
system.far_mem_ctrl.wrQLenPdf::127                  0                       # What write queue length does an incoming req see (Count)
system.far_mem_ctrl.bytesReadWrQ                    0                       # Total number of bytes read from write queue (Byte)
system.far_mem_ctrl.bytesReadSys                    0                       # Total read bytes from the system interface side (Byte)
system.far_mem_ctrl.bytesWrittenSys                 0                       # Total written bytes from the system interface side (Byte)
system.far_mem_ctrl.avgRdBWSys             0.00000000                       # Average system read bandwidth in Byte/s ((Byte/Second))
system.far_mem_ctrl.avgWrBWSys             0.00000000                       # Average system write bandwidth in Byte/s ((Byte/Second))
system.far_mem_ctrl.totGap                          0                       # Total gap between requests (Tick)
system.far_mem_ctrl.avgGap                        nan                       # Average gap between requests ((Tick/Count))
system.far_mem_ctrl.dram.readBursts                 0                       # Number of DRAM read bursts (Count)
system.far_mem_ctrl.dram.writeBursts                0                       # Number of DRAM write bursts (Count)
system.far_mem_ctrl.dram.perBankRdBursts::0            0                       # Per bank write bursts (Count)
system.far_mem_ctrl.dram.perBankRdBursts::1            0                       # Per bank write bursts (Count)
system.far_mem_ctrl.dram.perBankRdBursts::2            0                       # Per bank write bursts (Count)
system.far_mem_ctrl.dram.perBankRdBursts::3            0                       # Per bank write bursts (Count)
system.far_mem_ctrl.dram.perBankRdBursts::4            0                       # Per bank write bursts (Count)
system.far_mem_ctrl.dram.perBankRdBursts::5            0                       # Per bank write bursts (Count)
system.far_mem_ctrl.dram.perBankRdBursts::6            0                       # Per bank write bursts (Count)
system.far_mem_ctrl.dram.perBankRdBursts::7            0                       # Per bank write bursts (Count)
system.far_mem_ctrl.dram.perBankRdBursts::8            0                       # Per bank write bursts (Count)
system.far_mem_ctrl.dram.perBankRdBursts::9            0                       # Per bank write bursts (Count)
system.far_mem_ctrl.dram.perBankRdBursts::10            0                       # Per bank write bursts (Count)
system.far_mem_ctrl.dram.perBankRdBursts::11            0                       # Per bank write bursts (Count)
system.far_mem_ctrl.dram.perBankRdBursts::12            0                       # Per bank write bursts (Count)
system.far_mem_ctrl.dram.perBankRdBursts::13            0                       # Per bank write bursts (Count)
system.far_mem_ctrl.dram.perBankRdBursts::14            0                       # Per bank write bursts (Count)
system.far_mem_ctrl.dram.perBankRdBursts::15            0                       # Per bank write bursts (Count)
system.far_mem_ctrl.dram.perBankRdBursts::16            0                       # Per bank write bursts (Count)
system.far_mem_ctrl.dram.perBankRdBursts::17            0                       # Per bank write bursts (Count)
system.far_mem_ctrl.dram.perBankRdBursts::18            0                       # Per bank write bursts (Count)
system.far_mem_ctrl.dram.perBankRdBursts::19            0                       # Per bank write bursts (Count)
system.far_mem_ctrl.dram.perBankRdBursts::20            0                       # Per bank write bursts (Count)
system.far_mem_ctrl.dram.perBankRdBursts::21            0                       # Per bank write bursts (Count)
system.far_mem_ctrl.dram.perBankRdBursts::22            0                       # Per bank write bursts (Count)
system.far_mem_ctrl.dram.perBankRdBursts::23            0                       # Per bank write bursts (Count)
system.far_mem_ctrl.dram.perBankRdBursts::24            0                       # Per bank write bursts (Count)
system.far_mem_ctrl.dram.perBankRdBursts::25            0                       # Per bank write bursts (Count)
system.far_mem_ctrl.dram.perBankRdBursts::26            0                       # Per bank write bursts (Count)
system.far_mem_ctrl.dram.perBankRdBursts::27            0                       # Per bank write bursts (Count)
system.far_mem_ctrl.dram.perBankRdBursts::28            0                       # Per bank write bursts (Count)
system.far_mem_ctrl.dram.perBankRdBursts::29            0                       # Per bank write bursts (Count)
system.far_mem_ctrl.dram.perBankRdBursts::30            0                       # Per bank write bursts (Count)
system.far_mem_ctrl.dram.perBankRdBursts::31            0                       # Per bank write bursts (Count)
system.far_mem_ctrl.dram.perBankWrBursts::0            0                       # Per bank write bursts (Count)
system.far_mem_ctrl.dram.perBankWrBursts::1            0                       # Per bank write bursts (Count)
system.far_mem_ctrl.dram.perBankWrBursts::2            0                       # Per bank write bursts (Count)
system.far_mem_ctrl.dram.perBankWrBursts::3            0                       # Per bank write bursts (Count)
system.far_mem_ctrl.dram.perBankWrBursts::4            0                       # Per bank write bursts (Count)
system.far_mem_ctrl.dram.perBankWrBursts::5            0                       # Per bank write bursts (Count)
system.far_mem_ctrl.dram.perBankWrBursts::6            0                       # Per bank write bursts (Count)
system.far_mem_ctrl.dram.perBankWrBursts::7            0                       # Per bank write bursts (Count)
system.far_mem_ctrl.dram.perBankWrBursts::8            0                       # Per bank write bursts (Count)
system.far_mem_ctrl.dram.perBankWrBursts::9            0                       # Per bank write bursts (Count)
system.far_mem_ctrl.dram.perBankWrBursts::10            0                       # Per bank write bursts (Count)
system.far_mem_ctrl.dram.perBankWrBursts::11            0                       # Per bank write bursts (Count)
system.far_mem_ctrl.dram.perBankWrBursts::12            0                       # Per bank write bursts (Count)
system.far_mem_ctrl.dram.perBankWrBursts::13            0                       # Per bank write bursts (Count)
system.far_mem_ctrl.dram.perBankWrBursts::14            0                       # Per bank write bursts (Count)
system.far_mem_ctrl.dram.perBankWrBursts::15            0                       # Per bank write bursts (Count)
system.far_mem_ctrl.dram.perBankWrBursts::16            0                       # Per bank write bursts (Count)
system.far_mem_ctrl.dram.perBankWrBursts::17            0                       # Per bank write bursts (Count)
system.far_mem_ctrl.dram.perBankWrBursts::18            0                       # Per bank write bursts (Count)
system.far_mem_ctrl.dram.perBankWrBursts::19            0                       # Per bank write bursts (Count)
system.far_mem_ctrl.dram.perBankWrBursts::20            0                       # Per bank write bursts (Count)
system.far_mem_ctrl.dram.perBankWrBursts::21            0                       # Per bank write bursts (Count)
system.far_mem_ctrl.dram.perBankWrBursts::22            0                       # Per bank write bursts (Count)
system.far_mem_ctrl.dram.perBankWrBursts::23            0                       # Per bank write bursts (Count)
system.far_mem_ctrl.dram.perBankWrBursts::24            0                       # Per bank write bursts (Count)
system.far_mem_ctrl.dram.perBankWrBursts::25            0                       # Per bank write bursts (Count)
system.far_mem_ctrl.dram.perBankWrBursts::26            0                       # Per bank write bursts (Count)
system.far_mem_ctrl.dram.perBankWrBursts::27            0                       # Per bank write bursts (Count)
system.far_mem_ctrl.dram.perBankWrBursts::28            0                       # Per bank write bursts (Count)
system.far_mem_ctrl.dram.perBankWrBursts::29            0                       # Per bank write bursts (Count)
system.far_mem_ctrl.dram.perBankWrBursts::30            0                       # Per bank write bursts (Count)
system.far_mem_ctrl.dram.perBankWrBursts::31            0                       # Per bank write bursts (Count)
system.far_mem_ctrl.dram.totQLat                    0                       # Total ticks spent queuing (Tick)
system.far_mem_ctrl.dram.totBusLat                  0                       # Total ticks spent in databus transfers (Tick)
system.far_mem_ctrl.dram.totMemAccLat               0                       # Total ticks spent from burst creation until serviced by the DRAM (Tick)
system.far_mem_ctrl.dram.avgQLat                  nan                       # Average queueing delay per DRAM burst ((Tick/Count))
system.far_mem_ctrl.dram.avgBusLat                nan                       # Average bus latency per DRAM burst ((Tick/Count))
system.far_mem_ctrl.dram.avgMemAccLat             nan                       # Average memory access latency per DRAM burst ((Tick/Count))
system.far_mem_ctrl.dram.readRowHits                0                       # Number of row buffer hits during reads (Count)
system.far_mem_ctrl.dram.writeRowHits               0                       # Number of row buffer hits during writes (Count)
system.far_mem_ctrl.dram.readRowHitRate           nan                       # Row buffer hit rate for reads (Ratio)
system.far_mem_ctrl.dram.writeRowHitRate          nan                       # Row buffer hit rate for writes (Ratio)
system.far_mem_ctrl.dram.bytesRead                  0                       # Total bytes read (Byte)
system.far_mem_ctrl.dram.bytesWritten               0                       # Total bytes written (Byte)
system.far_mem_ctrl.dram.avgRdBW                    0                       # Average DRAM read bandwidth in MiBytes/s ((Byte/Second))
system.far_mem_ctrl.dram.avgWrBW                    0                       # Average DRAM write bandwidth in MiBytes/s ((Byte/Second))
system.far_mem_ctrl.dram.peakBW              19207.00                       # Theoretical peak bandwidth in MiByte/s ((Byte/Second))
system.far_mem_ctrl.dram.busUtil                 0.00                       # Data bus utilization in percentage (Ratio)
system.far_mem_ctrl.dram.busUtilRead             0.00                       # Data bus utilization in percentage for reads (Ratio)
system.far_mem_ctrl.dram.busUtilWrite            0.00                       # Data bus utilization in percentage for writes (Ratio)
system.far_mem_ctrl.dram.pageHitRate              nan                       # Row buffer hit rate, read and write combined (Ratio)
system.far_mem_ctrl.dram.power_state.pwrStateResidencyTicks::UNDEFINED  10000004000                       # Cumulative time (in ticks) in various power states (Tick)
system.far_mem_ctrl.dram.rank0.actEnergy            0                       # Energy for activate commands per rank (pJ) (Joule)
system.far_mem_ctrl.dram.rank0.preEnergy            0                       # Energy for precharge commands per rank (pJ) (Joule)
system.far_mem_ctrl.dram.rank0.readEnergy            0                       # Energy for read commands per rank (pJ) (Joule)
system.far_mem_ctrl.dram.rank0.writeEnergy            0                       # Energy for write commands per rank (pJ) (Joule)
system.far_mem_ctrl.dram.rank0.refreshEnergy 1778824873.324749                       # Energy for refresh commands per rank (pJ) (Joule)
system.far_mem_ctrl.dram.rank0.actBackEnergy 367118181.964789                       # Energy for active background per rank (pJ) (Joule)
system.far_mem_ctrl.dram.rank0.preBackEnergy 6245923254.950333                       # Energy for precharge background per rank (pJ) (Joule)
system.far_mem_ctrl.dram.rank0.actPowerDownEnergy            0                       # Energy for active power-down per rank (pJ) (Joule)
system.far_mem_ctrl.dram.rank0.prePowerDownEnergy            0                       # Energy for precharge power-down per rank (pJ) (Joule)
system.far_mem_ctrl.dram.rank0.selfRefreshEnergy            0                       # Energy for self refresh per rank (pJ) (Joule)
system.far_mem_ctrl.dram.rank0.totalEnergy 8391866310.239892                       # Total energy per rank (pJ) (Joule)
system.far_mem_ctrl.dram.rank0.averagePower   839.186295                       # Core power per rank (mW) (Watt)
system.far_mem_ctrl.dram.rank0.totalIdleTime            0                       # Total Idle time Per DRAM Rank (Tick)
system.far_mem_ctrl.dram.rank0.pwrStateTime::IDLE   9550604000                       # Time in different power states (Tick)
system.far_mem_ctrl.dram.rank0.pwrStateTime::REF    449400000                       # Time in different power states (Tick)
system.far_mem_ctrl.dram.rank0.pwrStateTime::SREF            0                       # Time in different power states (Tick)
system.far_mem_ctrl.dram.rank0.pwrStateTime::PRE_PDN            0                       # Time in different power states (Tick)
system.far_mem_ctrl.dram.rank0.pwrStateTime::ACT            0                       # Time in different power states (Tick)
system.far_mem_ctrl.dram.rank0.pwrStateTime::ACT_PDN            0                       # Time in different power states (Tick)
system.far_mem_ctrl.dram.rank1.actEnergy            0                       # Energy for activate commands per rank (pJ) (Joule)
system.far_mem_ctrl.dram.rank1.preEnergy            0                       # Energy for precharge commands per rank (pJ) (Joule)
system.far_mem_ctrl.dram.rank1.readEnergy            0                       # Energy for read commands per rank (pJ) (Joule)
system.far_mem_ctrl.dram.rank1.writeEnergy            0                       # Energy for write commands per rank (pJ) (Joule)
system.far_mem_ctrl.dram.rank1.refreshEnergy 1778824873.324749                       # Energy for refresh commands per rank (pJ) (Joule)
system.far_mem_ctrl.dram.rank1.actBackEnergy 367118181.964789                       # Energy for active background per rank (pJ) (Joule)
system.far_mem_ctrl.dram.rank1.preBackEnergy 6245923254.950333                       # Energy for precharge background per rank (pJ) (Joule)
system.far_mem_ctrl.dram.rank1.actPowerDownEnergy            0                       # Energy for active power-down per rank (pJ) (Joule)
system.far_mem_ctrl.dram.rank1.prePowerDownEnergy            0                       # Energy for precharge power-down per rank (pJ) (Joule)
system.far_mem_ctrl.dram.rank1.selfRefreshEnergy            0                       # Energy for self refresh per rank (pJ) (Joule)
system.far_mem_ctrl.dram.rank1.totalEnergy 8391866310.239892                       # Total energy per rank (pJ) (Joule)
system.far_mem_ctrl.dram.rank1.averagePower   839.186295                       # Core power per rank (mW) (Watt)
system.far_mem_ctrl.dram.rank1.totalIdleTime            0                       # Total Idle time Per DRAM Rank (Tick)
system.far_mem_ctrl.dram.rank1.pwrStateTime::IDLE   9550604000                       # Time in different power states (Tick)
system.far_mem_ctrl.dram.rank1.pwrStateTime::REF    449400000                       # Time in different power states (Tick)
system.far_mem_ctrl.dram.rank1.pwrStateTime::SREF            0                       # Time in different power states (Tick)
system.far_mem_ctrl.dram.rank1.pwrStateTime::PRE_PDN            0                       # Time in different power states (Tick)
system.far_mem_ctrl.dram.rank1.pwrStateTime::ACT            0                       # Time in different power states (Tick)
system.far_mem_ctrl.dram.rank1.pwrStateTime::ACT_PDN            0                       # Time in different power states (Tick)
system.far_mem_ctrl.power_state.pwrStateResidencyTicks::UNDEFINED  10000004000                       # Cumulative time (in ticks) in various power states (Tick)
system.generator.numSuppressed                      0                       # Number of suppressed packets to non-memory space (Count)
system.generator.numPackets                   3882483                       # Number of packets generated (Count)
system.generator.numRetries                   3791608                       # Number of retries (Count)
system.generator.retryTicks                9411103919                       # Time spent waiting due to back-pressure (Tick)
system.generator.bytesRead                  164786304                       # Number of bytes read (Byte)
system.generator.bytesWritten                83679552                       # Number of bytes written (Byte)
system.generator.totalReadLatency        1600286206096                       # Total latency of read requests (Tick)
system.generator.totalWriteLatency        29464919563                       # Total latency of write requests (Tick)
system.generator.totalReads                   2574786                       # Total num of reads (Count)
system.generator.totalWrites                  1307493                       # Total num of writes (Count)
system.generator.avgReadLatency          621522.024004                       # Avg latency of read requests ((Tick/Count))
system.generator.avgWriteLatency         22535.431978                       # Avg latency of write requests ((Tick/Count))
system.generator.readBW                  16478623808.550476                       # Read bandwidth ((Byte/Second))
system.generator.writeBW                 8367951852.819259                       # Write bandwidth ((Byte/Second))
system.generator.power_state.pwrStateResidencyTicks::UNDEFINED  10000004000                       # Cumulative time (in ticks) in various power states (Tick)
system.loc_mem_ctrl.avgPriority_writebacks::samples   7764574.00                       # Average QoS priority value for accepted requests (Count)
system.loc_mem_ctrl.priorityMinLatency   0.000000026000                       # per QoS priority minimum request to response latency (Second)
system.loc_mem_ctrl.priorityMaxLatency   0.000006029000                       # per QoS priority maximum request to response latency (Second)
system.loc_mem_ctrl.numReadWriteTurnArounds            0                       # Number of turnarounds from READ to WRITE (Count)
system.loc_mem_ctrl.numWriteReadTurnArounds            0                       # Number of turnarounds from WRITE to READ (Count)
system.loc_mem_ctrl.numStayReadState          7817403                       # Number of times bus staying in READ state (Count)
system.loc_mem_ctrl.numStayWriteState               0                       # Number of times bus staying in WRITE state (Count)
system.loc_mem_ctrl.readReqs                  2574849                       # Number of read requests accepted (Count)
system.loc_mem_ctrl.writeReqs                 1307444                       # Number of write requests accepted (Count)
system.loc_mem_ctrl.readBursts                5149698                       # Number of controller read bursts, including those serviced by the write queue (Count)
system.loc_mem_ctrl.writeBursts               2614888                       # Number of controller write bursts, including those merged in the write queue (Count)
system.loc_mem_ctrl.servicedByWrQ                  10                       # Number of controller read bursts serviced by the write queue (Count)
system.loc_mem_ctrl.mergedWrBursts                  2                       # Number of controller write bursts merged with an existing one (Count)
system.loc_mem_ctrl.avgRdQLen                   87.60                       # Average read queue length when enqueuing ((Count/Tick))
system.loc_mem_ctrl.avgWrQLen                  103.08                       # Average write queue length when enqueuing ((Count/Tick))
system.loc_mem_ctrl.numRdRetry                5508880                       # Number of times read queue was full causing retry (Count)
system.loc_mem_ctrl.numWrRetry                5507227                       # Number of times write queue was full causing retry (Count)
system.loc_mem_ctrl.readPktSize::0                  0                       # Read request sizes (log2) (Count)
system.loc_mem_ctrl.readPktSize::1                  0                       # Read request sizes (log2) (Count)
system.loc_mem_ctrl.readPktSize::2                  0                       # Read request sizes (log2) (Count)
system.loc_mem_ctrl.readPktSize::3                  0                       # Read request sizes (log2) (Count)
system.loc_mem_ctrl.readPktSize::4                  0                       # Read request sizes (log2) (Count)
system.loc_mem_ctrl.readPktSize::5            5149698                       # Read request sizes (log2) (Count)
system.loc_mem_ctrl.readPktSize::6                  0                       # Read request sizes (log2) (Count)
system.loc_mem_ctrl.writePktSize::0                 0                       # Write request sizes (log2) (Count)
system.loc_mem_ctrl.writePktSize::1                 0                       # Write request sizes (log2) (Count)
system.loc_mem_ctrl.writePktSize::2                 0                       # Write request sizes (log2) (Count)
system.loc_mem_ctrl.writePktSize::3                 0                       # Write request sizes (log2) (Count)
system.loc_mem_ctrl.writePktSize::4                 0                       # Write request sizes (log2) (Count)
system.loc_mem_ctrl.writePktSize::5           2614888                       # Write request sizes (log2) (Count)
system.loc_mem_ctrl.writePktSize::6                 0                       # Write request sizes (log2) (Count)
system.loc_mem_ctrl.rdQLenPdf::0                   16                       # What read queue length does an incoming req see (Count)
system.loc_mem_ctrl.rdQLenPdf::1                   24                       # What read queue length does an incoming req see (Count)
system.loc_mem_ctrl.rdQLenPdf::2                   70                       # What read queue length does an incoming req see (Count)
system.loc_mem_ctrl.rdQLenPdf::3                  121                       # What read queue length does an incoming req see (Count)
system.loc_mem_ctrl.rdQLenPdf::4                  229                       # What read queue length does an incoming req see (Count)
system.loc_mem_ctrl.rdQLenPdf::5                  356                       # What read queue length does an incoming req see (Count)
system.loc_mem_ctrl.rdQLenPdf::6                  564                       # What read queue length does an incoming req see (Count)
system.loc_mem_ctrl.rdQLenPdf::7                  822                       # What read queue length does an incoming req see (Count)
system.loc_mem_ctrl.rdQLenPdf::8                 1206                       # What read queue length does an incoming req see (Count)
system.loc_mem_ctrl.rdQLenPdf::9                 1605                       # What read queue length does an incoming req see (Count)
system.loc_mem_ctrl.rdQLenPdf::10                2097                       # What read queue length does an incoming req see (Count)
system.loc_mem_ctrl.rdQLenPdf::11                2610                       # What read queue length does an incoming req see (Count)
system.loc_mem_ctrl.rdQLenPdf::12                3265                       # What read queue length does an incoming req see (Count)
system.loc_mem_ctrl.rdQLenPdf::13                3979                       # What read queue length does an incoming req see (Count)
system.loc_mem_ctrl.rdQLenPdf::14                4820                       # What read queue length does an incoming req see (Count)
system.loc_mem_ctrl.rdQLenPdf::15                5732                       # What read queue length does an incoming req see (Count)
system.loc_mem_ctrl.rdQLenPdf::16                6535                       # What read queue length does an incoming req see (Count)
system.loc_mem_ctrl.rdQLenPdf::17                7269                       # What read queue length does an incoming req see (Count)
system.loc_mem_ctrl.rdQLenPdf::18                8074                       # What read queue length does an incoming req see (Count)
system.loc_mem_ctrl.rdQLenPdf::19                8706                       # What read queue length does an incoming req see (Count)
system.loc_mem_ctrl.rdQLenPdf::20                9337                       # What read queue length does an incoming req see (Count)
system.loc_mem_ctrl.rdQLenPdf::21                9997                       # What read queue length does an incoming req see (Count)
system.loc_mem_ctrl.rdQLenPdf::22               10729                       # What read queue length does an incoming req see (Count)
system.loc_mem_ctrl.rdQLenPdf::23               11068                       # What read queue length does an incoming req see (Count)
system.loc_mem_ctrl.rdQLenPdf::24               11510                       # What read queue length does an incoming req see (Count)
system.loc_mem_ctrl.rdQLenPdf::25               11727                       # What read queue length does an incoming req see (Count)
system.loc_mem_ctrl.rdQLenPdf::26               12000                       # What read queue length does an incoming req see (Count)
system.loc_mem_ctrl.rdQLenPdf::27               12290                       # What read queue length does an incoming req see (Count)
system.loc_mem_ctrl.rdQLenPdf::28               12701                       # What read queue length does an incoming req see (Count)
system.loc_mem_ctrl.rdQLenPdf::29               12839                       # What read queue length does an incoming req see (Count)
system.loc_mem_ctrl.rdQLenPdf::30               12955                       # What read queue length does an incoming req see (Count)
system.loc_mem_ctrl.rdQLenPdf::31               12749                       # What read queue length does an incoming req see (Count)
system.loc_mem_ctrl.rdQLenPdf::32               12886                       # What read queue length does an incoming req see (Count)
system.loc_mem_ctrl.rdQLenPdf::33               12724                       # What read queue length does an incoming req see (Count)
system.loc_mem_ctrl.rdQLenPdf::34               12743                       # What read queue length does an incoming req see (Count)
system.loc_mem_ctrl.rdQLenPdf::35               12709                       # What read queue length does an incoming req see (Count)
system.loc_mem_ctrl.rdQLenPdf::36               12865                       # What read queue length does an incoming req see (Count)
system.loc_mem_ctrl.rdQLenPdf::37               12972                       # What read queue length does an incoming req see (Count)
system.loc_mem_ctrl.rdQLenPdf::38               13089                       # What read queue length does an incoming req see (Count)
system.loc_mem_ctrl.rdQLenPdf::39               12702                       # What read queue length does an incoming req see (Count)
system.loc_mem_ctrl.rdQLenPdf::40               13788                       # What read queue length does an incoming req see (Count)
system.loc_mem_ctrl.rdQLenPdf::41               14278                       # What read queue length does an incoming req see (Count)
system.loc_mem_ctrl.rdQLenPdf::42               14187                       # What read queue length does an incoming req see (Count)
system.loc_mem_ctrl.rdQLenPdf::43               14053                       # What read queue length does an incoming req see (Count)
system.loc_mem_ctrl.rdQLenPdf::44               14241                       # What read queue length does an incoming req see (Count)
system.loc_mem_ctrl.rdQLenPdf::45               13980                       # What read queue length does an incoming req see (Count)
system.loc_mem_ctrl.rdQLenPdf::46               14196                       # What read queue length does an incoming req see (Count)
system.loc_mem_ctrl.rdQLenPdf::47               14561                       # What read queue length does an incoming req see (Count)
system.loc_mem_ctrl.rdQLenPdf::48               14611                       # What read queue length does an incoming req see (Count)
system.loc_mem_ctrl.rdQLenPdf::49               14875                       # What read queue length does an incoming req see (Count)
system.loc_mem_ctrl.rdQLenPdf::50               15173                       # What read queue length does an incoming req see (Count)
system.loc_mem_ctrl.rdQLenPdf::51               15185                       # What read queue length does an incoming req see (Count)
system.loc_mem_ctrl.rdQLenPdf::52               15211                       # What read queue length does an incoming req see (Count)
system.loc_mem_ctrl.rdQLenPdf::53               15366                       # What read queue length does an incoming req see (Count)
system.loc_mem_ctrl.rdQLenPdf::54               15837                       # What read queue length does an incoming req see (Count)
system.loc_mem_ctrl.rdQLenPdf::55               16248                       # What read queue length does an incoming req see (Count)
system.loc_mem_ctrl.rdQLenPdf::56               16969                       # What read queue length does an incoming req see (Count)
system.loc_mem_ctrl.rdQLenPdf::57               17836                       # What read queue length does an incoming req see (Count)
system.loc_mem_ctrl.rdQLenPdf::58               18560                       # What read queue length does an incoming req see (Count)
system.loc_mem_ctrl.rdQLenPdf::59               19366                       # What read queue length does an incoming req see (Count)
system.loc_mem_ctrl.rdQLenPdf::60               20492                       # What read queue length does an incoming req see (Count)
system.loc_mem_ctrl.rdQLenPdf::61               21585                       # What read queue length does an incoming req see (Count)
system.loc_mem_ctrl.rdQLenPdf::62               28422                       # What read queue length does an incoming req see (Count)
system.loc_mem_ctrl.rdQLenPdf::63               32522                       # What read queue length does an incoming req see (Count)
system.loc_mem_ctrl.rdQLenPdf::64               33743                       # What read queue length does an incoming req see (Count)
system.loc_mem_ctrl.rdQLenPdf::65               37898                       # What read queue length does an incoming req see (Count)
system.loc_mem_ctrl.rdQLenPdf::66               38772                       # What read queue length does an incoming req see (Count)
system.loc_mem_ctrl.rdQLenPdf::67               43821                       # What read queue length does an incoming req see (Count)
system.loc_mem_ctrl.rdQLenPdf::68               48695                       # What read queue length does an incoming req see (Count)
system.loc_mem_ctrl.rdQLenPdf::69               54078                       # What read queue length does an incoming req see (Count)
system.loc_mem_ctrl.rdQLenPdf::70               60066                       # What read queue length does an incoming req see (Count)
system.loc_mem_ctrl.rdQLenPdf::71               65813                       # What read queue length does an incoming req see (Count)
system.loc_mem_ctrl.rdQLenPdf::72               72314                       # What read queue length does an incoming req see (Count)
system.loc_mem_ctrl.rdQLenPdf::73               78604                       # What read queue length does an incoming req see (Count)
system.loc_mem_ctrl.rdQLenPdf::74               85286                       # What read queue length does an incoming req see (Count)
system.loc_mem_ctrl.rdQLenPdf::75               90524                       # What read queue length does an incoming req see (Count)
system.loc_mem_ctrl.rdQLenPdf::76               97222                       # What read queue length does an incoming req see (Count)
system.loc_mem_ctrl.rdQLenPdf::77              102057                       # What read queue length does an incoming req see (Count)
system.loc_mem_ctrl.rdQLenPdf::78              106997                       # What read queue length does an incoming req see (Count)
system.loc_mem_ctrl.rdQLenPdf::79              111005                       # What read queue length does an incoming req see (Count)
system.loc_mem_ctrl.rdQLenPdf::80              115936                       # What read queue length does an incoming req see (Count)
system.loc_mem_ctrl.rdQLenPdf::81              119473                       # What read queue length does an incoming req see (Count)
system.loc_mem_ctrl.rdQLenPdf::82              123145                       # What read queue length does an incoming req see (Count)
system.loc_mem_ctrl.rdQLenPdf::83              125551                       # What read queue length does an incoming req see (Count)
system.loc_mem_ctrl.rdQLenPdf::84              128506                       # What read queue length does an incoming req see (Count)
system.loc_mem_ctrl.rdQLenPdf::85              130414                       # What read queue length does an incoming req see (Count)
system.loc_mem_ctrl.rdQLenPdf::86              132252                       # What read queue length does an incoming req see (Count)
system.loc_mem_ctrl.rdQLenPdf::87              133020                       # What read queue length does an incoming req see (Count)
system.loc_mem_ctrl.rdQLenPdf::88              134279                       # What read queue length does an incoming req see (Count)
system.loc_mem_ctrl.rdQLenPdf::89              135245                       # What read queue length does an incoming req see (Count)
system.loc_mem_ctrl.rdQLenPdf::90              136249                       # What read queue length does an incoming req see (Count)
system.loc_mem_ctrl.rdQLenPdf::91              136439                       # What read queue length does an incoming req see (Count)
system.loc_mem_ctrl.rdQLenPdf::92              136048                       # What read queue length does an incoming req see (Count)
system.loc_mem_ctrl.rdQLenPdf::93              136138                       # What read queue length does an incoming req see (Count)
system.loc_mem_ctrl.rdQLenPdf::94              135816                       # What read queue length does an incoming req see (Count)
system.loc_mem_ctrl.rdQLenPdf::95              135533                       # What read queue length does an incoming req see (Count)
system.loc_mem_ctrl.rdQLenPdf::96              134247                       # What read queue length does an incoming req see (Count)
system.loc_mem_ctrl.rdQLenPdf::97              133393                       # What read queue length does an incoming req see (Count)
system.loc_mem_ctrl.rdQLenPdf::98              131907                       # What read queue length does an incoming req see (Count)
system.loc_mem_ctrl.rdQLenPdf::99              130391                       # What read queue length does an incoming req see (Count)
system.loc_mem_ctrl.rdQLenPdf::100             129538                       # What read queue length does an incoming req see (Count)
system.loc_mem_ctrl.rdQLenPdf::101             128156                       # What read queue length does an incoming req see (Count)
system.loc_mem_ctrl.rdQLenPdf::102             124173                       # What read queue length does an incoming req see (Count)
system.loc_mem_ctrl.rdQLenPdf::103             113050                       # What read queue length does an incoming req see (Count)
system.loc_mem_ctrl.rdQLenPdf::104              80438                       # What read queue length does an incoming req see (Count)
system.loc_mem_ctrl.rdQLenPdf::105              35634                       # What read queue length does an incoming req see (Count)
system.loc_mem_ctrl.rdQLenPdf::106               8851                       # What read queue length does an incoming req see (Count)
system.loc_mem_ctrl.rdQLenPdf::107               6257                       # What read queue length does an incoming req see (Count)
system.loc_mem_ctrl.rdQLenPdf::108               4936                       # What read queue length does an incoming req see (Count)
system.loc_mem_ctrl.rdQLenPdf::109               4564                       # What read queue length does an incoming req see (Count)
system.loc_mem_ctrl.rdQLenPdf::110               4175                       # What read queue length does an incoming req see (Count)
system.loc_mem_ctrl.rdQLenPdf::111               4032                       # What read queue length does an incoming req see (Count)
system.loc_mem_ctrl.rdQLenPdf::112               3782                       # What read queue length does an incoming req see (Count)
system.loc_mem_ctrl.rdQLenPdf::113               3700                       # What read queue length does an incoming req see (Count)
system.loc_mem_ctrl.rdQLenPdf::114               3528                       # What read queue length does an incoming req see (Count)
system.loc_mem_ctrl.rdQLenPdf::115               3432                       # What read queue length does an incoming req see (Count)
system.loc_mem_ctrl.rdQLenPdf::116               3195                       # What read queue length does an incoming req see (Count)
system.loc_mem_ctrl.rdQLenPdf::117               3121                       # What read queue length does an incoming req see (Count)
system.loc_mem_ctrl.rdQLenPdf::118               2958                       # What read queue length does an incoming req see (Count)
system.loc_mem_ctrl.rdQLenPdf::119               2829                       # What read queue length does an incoming req see (Count)
system.loc_mem_ctrl.rdQLenPdf::120               2521                       # What read queue length does an incoming req see (Count)
system.loc_mem_ctrl.rdQLenPdf::121               2419                       # What read queue length does an incoming req see (Count)
system.loc_mem_ctrl.rdQLenPdf::122               2289                       # What read queue length does an incoming req see (Count)
system.loc_mem_ctrl.rdQLenPdf::123               2213                       # What read queue length does an incoming req see (Count)
system.loc_mem_ctrl.rdQLenPdf::124               2004                       # What read queue length does an incoming req see (Count)
system.loc_mem_ctrl.rdQLenPdf::125               1845                       # What read queue length does an incoming req see (Count)
system.loc_mem_ctrl.rdQLenPdf::126               1598                       # What read queue length does an incoming req see (Count)
system.loc_mem_ctrl.rdQLenPdf::127               1339                       # What read queue length does an incoming req see (Count)
system.loc_mem_ctrl.wrQLenPdf::0                 1846                       # What write queue length does an incoming req see (Count)
system.loc_mem_ctrl.wrQLenPdf::1                 2367                       # What write queue length does an incoming req see (Count)
system.loc_mem_ctrl.wrQLenPdf::2                 2585                       # What write queue length does an incoming req see (Count)
system.loc_mem_ctrl.wrQLenPdf::3                 2932                       # What write queue length does an incoming req see (Count)
system.loc_mem_ctrl.wrQLenPdf::4                 3189                       # What write queue length does an incoming req see (Count)
system.loc_mem_ctrl.wrQLenPdf::5                 3379                       # What write queue length does an incoming req see (Count)
system.loc_mem_ctrl.wrQLenPdf::6                 3568                       # What write queue length does an incoming req see (Count)
system.loc_mem_ctrl.wrQLenPdf::7                 3679                       # What write queue length does an incoming req see (Count)
system.loc_mem_ctrl.wrQLenPdf::8                 3805                       # What write queue length does an incoming req see (Count)
system.loc_mem_ctrl.wrQLenPdf::9                 3774                       # What write queue length does an incoming req see (Count)
system.loc_mem_ctrl.wrQLenPdf::10                3887                       # What write queue length does an incoming req see (Count)
system.loc_mem_ctrl.wrQLenPdf::11                3871                       # What write queue length does an incoming req see (Count)
system.loc_mem_ctrl.wrQLenPdf::12                3988                       # What write queue length does an incoming req see (Count)
system.loc_mem_ctrl.wrQLenPdf::13                4009                       # What write queue length does an incoming req see (Count)
system.loc_mem_ctrl.wrQLenPdf::14                4141                       # What write queue length does an incoming req see (Count)
system.loc_mem_ctrl.wrQLenPdf::15                4013                       # What write queue length does an incoming req see (Count)
system.loc_mem_ctrl.wrQLenPdf::16                4059                       # What write queue length does an incoming req see (Count)
system.loc_mem_ctrl.wrQLenPdf::17                3940                       # What write queue length does an incoming req see (Count)
system.loc_mem_ctrl.wrQLenPdf::18                3985                       # What write queue length does an incoming req see (Count)
system.loc_mem_ctrl.wrQLenPdf::19                3847                       # What write queue length does an incoming req see (Count)
system.loc_mem_ctrl.wrQLenPdf::20                3891                       # What write queue length does an incoming req see (Count)
system.loc_mem_ctrl.wrQLenPdf::21                3821                       # What write queue length does an incoming req see (Count)
system.loc_mem_ctrl.wrQLenPdf::22                3866                       # What write queue length does an incoming req see (Count)
system.loc_mem_ctrl.wrQLenPdf::23                3755                       # What write queue length does an incoming req see (Count)
system.loc_mem_ctrl.wrQLenPdf::24                3759                       # What write queue length does an incoming req see (Count)
system.loc_mem_ctrl.wrQLenPdf::25                3676                       # What write queue length does an incoming req see (Count)
system.loc_mem_ctrl.wrQLenPdf::26                3678                       # What write queue length does an incoming req see (Count)
system.loc_mem_ctrl.wrQLenPdf::27                3596                       # What write queue length does an incoming req see (Count)
system.loc_mem_ctrl.wrQLenPdf::28                3608                       # What write queue length does an incoming req see (Count)
system.loc_mem_ctrl.wrQLenPdf::29                3510                       # What write queue length does an incoming req see (Count)
system.loc_mem_ctrl.wrQLenPdf::30                3524                       # What write queue length does an incoming req see (Count)
system.loc_mem_ctrl.wrQLenPdf::31                3492                       # What write queue length does an incoming req see (Count)
system.loc_mem_ctrl.wrQLenPdf::32                3484                       # What write queue length does an incoming req see (Count)
system.loc_mem_ctrl.wrQLenPdf::33                3465                       # What write queue length does an incoming req see (Count)
system.loc_mem_ctrl.wrQLenPdf::34                3448                       # What write queue length does an incoming req see (Count)
system.loc_mem_ctrl.wrQLenPdf::35                3401                       # What write queue length does an incoming req see (Count)
system.loc_mem_ctrl.wrQLenPdf::36                3396                       # What write queue length does an incoming req see (Count)
system.loc_mem_ctrl.wrQLenPdf::37                3355                       # What write queue length does an incoming req see (Count)
system.loc_mem_ctrl.wrQLenPdf::38                3347                       # What write queue length does an incoming req see (Count)
system.loc_mem_ctrl.wrQLenPdf::39                3329                       # What write queue length does an incoming req see (Count)
system.loc_mem_ctrl.wrQLenPdf::40                3331                       # What write queue length does an incoming req see (Count)
system.loc_mem_ctrl.wrQLenPdf::41                3321                       # What write queue length does an incoming req see (Count)
system.loc_mem_ctrl.wrQLenPdf::42                3322                       # What write queue length does an incoming req see (Count)
system.loc_mem_ctrl.wrQLenPdf::43                3294                       # What write queue length does an incoming req see (Count)
system.loc_mem_ctrl.wrQLenPdf::44                3254                       # What write queue length does an incoming req see (Count)
system.loc_mem_ctrl.wrQLenPdf::45                3253                       # What write queue length does an incoming req see (Count)
system.loc_mem_ctrl.wrQLenPdf::46                3253                       # What write queue length does an incoming req see (Count)
system.loc_mem_ctrl.wrQLenPdf::47                3236                       # What write queue length does an incoming req see (Count)
system.loc_mem_ctrl.wrQLenPdf::48                3217                       # What write queue length does an incoming req see (Count)
system.loc_mem_ctrl.wrQLenPdf::49                3211                       # What write queue length does an incoming req see (Count)
system.loc_mem_ctrl.wrQLenPdf::50                3207                       # What write queue length does an incoming req see (Count)
system.loc_mem_ctrl.wrQLenPdf::51                3190                       # What write queue length does an incoming req see (Count)
system.loc_mem_ctrl.wrQLenPdf::52                3188                       # What write queue length does an incoming req see (Count)
system.loc_mem_ctrl.wrQLenPdf::53                3177                       # What write queue length does an incoming req see (Count)
system.loc_mem_ctrl.wrQLenPdf::54                3171                       # What write queue length does an incoming req see (Count)
system.loc_mem_ctrl.wrQLenPdf::55                3174                       # What write queue length does an incoming req see (Count)
system.loc_mem_ctrl.wrQLenPdf::56                3187                       # What write queue length does an incoming req see (Count)
system.loc_mem_ctrl.wrQLenPdf::57                3181                       # What write queue length does an incoming req see (Count)
system.loc_mem_ctrl.wrQLenPdf::58                3170                       # What write queue length does an incoming req see (Count)
system.loc_mem_ctrl.wrQLenPdf::59                3170                       # What write queue length does an incoming req see (Count)
system.loc_mem_ctrl.wrQLenPdf::60                3148                       # What write queue length does an incoming req see (Count)
system.loc_mem_ctrl.wrQLenPdf::61                3160                       # What write queue length does an incoming req see (Count)
system.loc_mem_ctrl.wrQLenPdf::62                5070                       # What write queue length does an incoming req see (Count)
system.loc_mem_ctrl.wrQLenPdf::63                5985                       # What write queue length does an incoming req see (Count)
system.loc_mem_ctrl.wrQLenPdf::64                6409                       # What write queue length does an incoming req see (Count)
system.loc_mem_ctrl.wrQLenPdf::65                7667                       # What write queue length does an incoming req see (Count)
system.loc_mem_ctrl.wrQLenPdf::66                8627                       # What write queue length does an incoming req see (Count)
system.loc_mem_ctrl.wrQLenPdf::67               10597                       # What write queue length does an incoming req see (Count)
system.loc_mem_ctrl.wrQLenPdf::68               11997                       # What write queue length does an incoming req see (Count)
system.loc_mem_ctrl.wrQLenPdf::69               13610                       # What write queue length does an incoming req see (Count)
system.loc_mem_ctrl.wrQLenPdf::70               15695                       # What write queue length does an incoming req see (Count)
system.loc_mem_ctrl.wrQLenPdf::71               17588                       # What write queue length does an incoming req see (Count)
system.loc_mem_ctrl.wrQLenPdf::72               19969                       # What write queue length does an incoming req see (Count)
system.loc_mem_ctrl.wrQLenPdf::73               21981                       # What write queue length does an incoming req see (Count)
system.loc_mem_ctrl.wrQLenPdf::74               24609                       # What write queue length does an incoming req see (Count)
system.loc_mem_ctrl.wrQLenPdf::75               26432                       # What write queue length does an incoming req see (Count)
system.loc_mem_ctrl.wrQLenPdf::76               29298                       # What write queue length does an incoming req see (Count)
[...]
system.loc_mem_ctrl.dram_2.perBankRdBursts::3       160538                       # Per bank write bursts (Count)
system.loc_mem_ctrl.dram_2.perBankRdBursts::4       161004                       # Per bank write bursts (Count)
system.loc_mem_ctrl.dram_2.perBankRdBursts::5       160214                       # Per bank write bursts (Count)
system.loc_mem_ctrl.dram_2.perBankRdBursts::6       161350                       # Per bank write bursts (Count)
system.loc_mem_ctrl.dram_2.perBankRdBursts::7       159872                       # Per bank write bursts (Count)
system.loc_mem_ctrl.dram_2.perBankRdBursts::8       160816                       # Per bank write bursts (Count)
system.loc_mem_ctrl.dram_2.perBankRdBursts::9       160726                       # Per bank write bursts (Count)
system.loc_mem_ctrl.dram_2.perBankRdBursts::10       161096                       # Per bank write bursts (Count)
system.loc_mem_ctrl.dram_2.perBankRdBursts::11       160660                       # Per bank write bursts (Count)
system.loc_mem_ctrl.dram_2.perBankRdBursts::12       161148                       # Per bank write bursts (Count)
system.loc_mem_ctrl.dram_2.perBankRdBursts::13       161284                       # Per bank write bursts (Count)
system.loc_mem_ctrl.dram_2.perBankRdBursts::14       160982                       # Per bank write bursts (Count)
system.loc_mem_ctrl.dram_2.perBankRdBursts::15       161274                       # Per bank write bursts (Count)
system.loc_mem_ctrl.dram_2.perBankWrBursts::0        81190                       # Per bank write bursts (Count)
system.loc_mem_ctrl.dram_2.perBankWrBursts::1        81662                       # Per bank write bursts (Count)
system.loc_mem_ctrl.dram_2.perBankWrBursts::2        81724                       # Per bank write bursts (Count)
system.loc_mem_ctrl.dram_2.perBankWrBursts::3        81702                       # Per bank write bursts (Count)
system.loc_mem_ctrl.dram_2.perBankWrBursts::4        81892                       # Per bank write bursts (Count)
system.loc_mem_ctrl.dram_2.perBankWrBursts::5        82168                       # Per bank write bursts (Count)
system.loc_mem_ctrl.dram_2.perBankWrBursts::6        81100                       # Per bank write bursts (Count)
system.loc_mem_ctrl.dram_2.perBankWrBursts::7        81700                       # Per bank write bursts (Count)
system.loc_mem_ctrl.dram_2.perBankWrBursts::8        80730                       # Per bank write bursts (Count)
system.loc_mem_ctrl.dram_2.perBankWrBursts::9        81116                       # Per bank write bursts (Count)
system.loc_mem_ctrl.dram_2.perBankWrBursts::10        81620                       # Per bank write bursts (Count)
system.loc_mem_ctrl.dram_2.perBankWrBursts::11        81578                       # Per bank write bursts (Count)
system.loc_mem_ctrl.dram_2.perBankWrBursts::12        81940                       # Per bank write bursts (Count)
system.loc_mem_ctrl.dram_2.perBankWrBursts::13        81526                       # Per bank write bursts (Count)
system.loc_mem_ctrl.dram_2.perBankWrBursts::14        81918                       # Per bank write bursts (Count)
system.loc_mem_ctrl.dram_2.perBankWrBursts::15        82242                       # Per bank write bursts (Count)
system.loc_mem_ctrl.dram_2.totQLat       423925158390                       # Total ticks spent queuing (Tick)
system.loc_mem_ctrl.dram_2.totBusLat       5147456000                       # Total ticks spent in databus transfers (Tick)
system.loc_mem_ctrl.dram_2.totMemAccLat  475399718390                       # Total ticks spent from burst creation until serviced by the DRAM (Tick)
system.loc_mem_ctrl.dram_2.avgQLat          164712.49                       # Average queueing delay per DRAM burst ((Tick/Count))
system.loc_mem_ctrl.dram_2.avgBusLat          2000.00                       # Average bus latency per DRAM burst ((Tick/Count))
system.loc_mem_ctrl.dram_2.avgMemAccLat     184712.49                       # Average memory access latency per DRAM burst ((Tick/Count))
system.loc_mem_ctrl.dram_2.readRowHits        1285502                       # Number of row buffer hits during reads (Count)
system.loc_mem_ctrl.dram_2.writeRowHits        652158                       # Number of row buffer hits during writes (Count)
system.loc_mem_ctrl.dram_2.readRowHitRate        49.95                       # Row buffer hit rate for reads (Ratio)
system.loc_mem_ctrl.dram_2.writeRowHitRate        49.94                       # Row buffer hit rate for writes (Ratio)
system.loc_mem_ctrl.dram_2.bytesPerActivate::samples      1941876                       # Bytes accessed per row activation (Byte)
system.loc_mem_ctrl.dram_2.bytesPerActivate::mean    63.930525                       # Bytes accessed per row activation (Byte)
system.loc_mem_ctrl.dram_2.bytesPerActivate::gmean    63.903189                       # Bytes accessed per row activation (Byte)
system.loc_mem_ctrl.dram_2.bytesPerActivate::stdev     1.515743                       # Bytes accessed per row activation (Byte)
system.loc_mem_ctrl.dram_2.bytesPerActivate::32-47         4266      0.22%      0.22% # Bytes accessed per row activation (Byte)
system.loc_mem_ctrl.dram_2.bytesPerActivate::64-79      1937585     99.78%    100.00% # Bytes accessed per row activation (Byte)
system.loc_mem_ctrl.dram_2.bytesPerActivate::128-143           25      0.00%    100.00% # Bytes accessed per row activation (Byte)
system.loc_mem_ctrl.dram_2.bytesPerActivate::total      1941876                       # Bytes accessed per row activation (Byte)
system.loc_mem_ctrl.dram_2.bytesRead         82359296                       # Total bytes read (Byte)
system.loc_mem_ctrl.dram_2.bytesWritten      41785856                       # Total bytes written (Byte)
system.loc_mem_ctrl.dram_2.avgRdBW        8235.926306                       # Average DRAM read bandwidth in MiBytes/s ((Byte/Second))
system.loc_mem_ctrl.dram_2.avgWrBW        4178.583929                       # Average DRAM write bandwidth in MiBytes/s ((Byte/Second))
system.loc_mem_ctrl.dram_2.peakBW            16000.00                       # Theoretical peak bandwidth in MiByte/s ((Byte/Second))
system.loc_mem_ctrl.dram_2.busUtil              77.59                       # Data bus utilization in percentage (Ratio)
system.loc_mem_ctrl.dram_2.busUtilRead          51.47                       # Data bus utilization in percentage for reads (Ratio)
system.loc_mem_ctrl.dram_2.busUtilWrite         26.12                       # Data bus utilization in percentage for writes (Ratio)
system.loc_mem_ctrl.dram_2.pageHitRate          49.95                       # Row buffer hit rate, read and write combined (Ratio)
system.loc_mem_ctrl.dram_2.power_state.pwrStateResidencyTicks::UNDEFINED  10000004000                       # Cumulative time (in ticks) in various power states (Tick)
system.loc_mem_ctrl.dram_2.rank0.actEnergy            0                       # Energy for activate commands per rank (pJ) (Joule)
system.loc_mem_ctrl.dram_2.rank0.preEnergy            0                       # Energy for precharge commands per rank (pJ) (Joule)
system.loc_mem_ctrl.dram_2.rank0.readEnergy            0                       # Energy for read commands per rank (pJ) (Joule)
system.loc_mem_ctrl.dram_2.rank0.writeEnergy            0                       # Energy for write commands per rank (pJ) (Joule)
system.loc_mem_ctrl.dram_2.rank0.refreshEnergy            0                       # Energy for refresh commands per rank (pJ) (Joule)
system.loc_mem_ctrl.dram_2.rank0.actBackEnergy            0                       # Energy for active background per rank (pJ) (Joule)
system.loc_mem_ctrl.dram_2.rank0.preBackEnergy            0                       # Energy for precharge background per rank (pJ) (Joule)
system.loc_mem_ctrl.dram_2.rank0.actPowerDownEnergy            0                       # Energy for active power-down per rank (pJ) (Joule)
system.loc_mem_ctrl.dram_2.rank0.prePowerDownEnergy            0                       # Energy for precharge power-down per rank (pJ) (Joule)
system.loc_mem_ctrl.dram_2.rank0.selfRefreshEnergy            0                       # Energy for self refresh per rank (pJ) (Joule)
system.loc_mem_ctrl.dram_2.rank0.totalEnergy            0                       # Total energy per rank (pJ) (Joule)
system.loc_mem_ctrl.dram_2.rank0.averagePower            0                       # Core power per rank (mW) (Watt)
system.loc_mem_ctrl.dram_2.rank0.totalIdleTime            0                       # Total Idle time Per DRAM Rank (Tick)
system.loc_mem_ctrl.dram_2.rank0.pwrStateTime::IDLE     25501001                       # Time in different power states (Tick)
system.loc_mem_ctrl.dram_2.rank0.pwrStateTime::REF    566060000                       # Time in different power states (Tick)
system.loc_mem_ctrl.dram_2.rank0.pwrStateTime::SREF            0                       # Time in different power states (Tick)
system.loc_mem_ctrl.dram_2.rank0.pwrStateTime::PRE_PDN            0                       # Time in different power states (Tick)
system.loc_mem_ctrl.dram_2.rank0.pwrStateTime::ACT   9408442999                       # Time in different power states (Tick)
system.loc_mem_ctrl.dram_2.rank0.pwrStateTime::ACT_PDN            0                       # Time in different power states (Tick)
system.loc_mem_ctrl.power_state.pwrStateResidencyTicks::UNDEFINED  10000004000                       # Cumulative time (in ticks) in various power states (Tick)
system.mem_ctrl.bytesRead::generator        164786304                       # Number of bytes read from this memory (Byte)
system.mem_ctrl.bytesRead::total            164786304                       # Number of bytes read from this memory (Byte)
system.mem_ctrl.bytesWritten::generator      83679872                       # Number of bytes written to this memory (Byte)
system.mem_ctrl.bytesWritten::total          83679872                       # Number of bytes written to this memory (Byte)
system.mem_ctrl.numReads::generator           2574786                       # Number of read requests responded to by this memory (Count)
system.mem_ctrl.numReads::total               2574786                       # Number of read requests responded to by this memory (Count)
system.mem_ctrl.numWrites::generator          1307498                       # Number of write requests responded to by this memory (Count)
system.mem_ctrl.numWrites::total              1307498                       # Number of write requests responded to by this memory (Count)
system.mem_ctrl.bwRead::generator         16478623809                       # Total read bandwidth from this memory ((Byte/Second))
system.mem_ctrl.bwRead::total             16478623809                       # Total read bandwidth from this memory ((Byte/Second))
system.mem_ctrl.bwWrite::generator         8367983853                       # Write bandwidth from this memory ((Byte/Second))
system.mem_ctrl.bwWrite::total             8367983853                       # Write bandwidth from this memory ((Byte/Second))
system.mem_ctrl.bwTotal::generator        24846607661                       # Total bandwidth to/from this memory ((Byte/Second))
system.mem_ctrl.bwTotal::total            24846607661                       # Total bandwidth to/from this memory ((Byte/Second))
system.mem_ctrl.readReqs                      2574985                       # Number of read requests accepted (Count)
system.mem_ctrl.writeReqs                     1307498                       # Number of write requests accepted (Count)
system.mem_ctrl.servicedByWrQ                       7                       # Number of controller read bursts serviced by the write queue (Count)
system.mem_ctrl.mergedWrBursts                      3                       # Number of controller write bursts merged with an existing one (Count)
system.mem_ctrl.numRdRetry                    2514592                       # Number of times read queue was full causing retry (Count)
system.mem_ctrl.numWrRetry                    1277016                       # Number of times write queue was full causing retry (Count)
system.mem_ctrl.readPktSize::0                      0                       # Read request sizes (log2) (Count)
system.mem_ctrl.readPktSize::1                      0                       # Read request sizes (log2) (Count)
system.mem_ctrl.readPktSize::2                      0                       # Read request sizes (log2) (Count)
system.mem_ctrl.readPktSize::3                      0                       # Read request sizes (log2) (Count)
system.mem_ctrl.readPktSize::4                      0                       # Read request sizes (log2) (Count)
system.mem_ctrl.readPktSize::5                      0                       # Read request sizes (log2) (Count)
system.mem_ctrl.readPktSize::6                2574985                       # Read request sizes (log2) (Count)
system.mem_ctrl.writePktSize::0                     0                       # Write request sizes (log2) (Count)
system.mem_ctrl.writePktSize::1                     0                       # Write request sizes (log2) (Count)
system.mem_ctrl.writePktSize::2                     0                       # Write request sizes (log2) (Count)
system.mem_ctrl.writePktSize::3                     0                       # Write request sizes (log2) (Count)
system.mem_ctrl.writePktSize::4                     0                       # Write request sizes (log2) (Count)
system.mem_ctrl.writePktSize::5                     0                       # Write request sizes (log2) (Count)
system.mem_ctrl.writePktSize::6               1307498                       # Write request sizes (log2) (Count)
system.mem_ctrl.bytesReadWrQ                      448                       # Total number of bytes read from write queue (Byte)
system.mem_ctrl.bytesReadSys                164799040                       # Total read bytes from the system interface side (Byte)
system.mem_ctrl.bytesWrittenSys              83679872                       # Total written bytes from the system interface side (Byte)
system.mem_ctrl.avgRdBWSys               16479897408.04103661                       # Average system read bandwidth in Byte/s ((Byte/Second))
system.mem_ctrl.avgWrBWSys               8367983852.80645943                       # Average system write bandwidth in Byte/s ((Byte/Second))
system.mem_ctrl.totGap                   16388081079797790720                       # Total gap between requests (Tick)
system.mem_ctrl.avgGap                   4221030994803.53                       # Average gap between requests ((Tick/Count))
system.mem_ctrl.avgORBLen                    255.9910                       # Average ORB length ((Count/Tick))
system.mem_ctrl.avgLocRdQLenStrt               100.67                       # Average local read queue length ((Count/Tick))
system.mem_ctrl.avgLocWrQLenStrt               100.33                       # Average local write queue length ((Count/Tick))
system.mem_ctrl.avgFarRdQLenStrt                 0.00                       # Average far read queue length ((Count/Tick))
system.mem_ctrl.avgFarWrQLenStrt                 0.00                       # Average far write queue length ((Count/Tick))
system.mem_ctrl.avgLocRdQLenEnq                101.62                       # Average local read queue length when enqueuing ((Count/Tick))
system.mem_ctrl.avgLocWrQLenEnq                101.28                       # Average local write queue length when enqueuing ((Count/Tick))
system.mem_ctrl.avgFarRdQLenEnq                  0.00                       # Average far read queue length when enqueuing ((Count/Tick))
system.mem_ctrl.avgFarWrQLenEnq                  0.00                       # Average far write queue length when enqueuing ((Count/Tick))
system.mem_ctrl.numWrBacks                          0                       # Total number of write backs from DRAM cache to main memory (Unspecified)
system.mem_ctrl.totNumConf                        922                       # Total number of packets conflicted on DRAM cache (Unspecified)
system.mem_ctrl.totNumORBFull                 3791608                       # Total number of packets ORB full (Unspecified)
system.mem_ctrl.totNumCRBFull                       0                       # Total number of packets conflicted yet couldn't enter confBuffer (Unspecified)
system.mem_ctrl.maxNumConf                          2                       # Maximum number of packets conflicted on DRAM cache (Unspecified)
system.mem_ctrl.sentLocRdPort                 2574849                       # stat (Unspecified)
system.mem_ctrl.sentLocWrPort                 1307444                       # stat (Unspecified)
system.mem_ctrl.failedLocRdPort               5508880                       # stat (Unspecified)
system.mem_ctrl.failedLocWrPort               5507227                       # stat (Unspecified)
system.mem_ctrl.recvdRdPort                         0                       # stat (Unspecified)
system.mem_ctrl.sentFarRdPort                       0                       # stat (Unspecified)
system.mem_ctrl.sentFarWrPort                       0                       # stat (Unspecified)
system.mem_ctrl.failedFarRdPort                     0                       # stat (Unspecified)
system.mem_ctrl.failedFarWrPort                     0                       # stat (Unspecified)
system.mem_ctrl.totPktsServiceTime         2559848054                       # stat (Unspecified)
system.mem_ctrl.totPktsORBTime           6542243457461                       # stat (Unspecified)
system.mem_ctrl.totTimeFarRdtoSend                  0                       # stat (Unspecified)
system.mem_ctrl.totTimeFarRdtoRecv                  0                       # stat (Unspecified)
system.mem_ctrl.totTimeFarWrtoSend                  0                       # stat (Unspecified)
system.mem_ctrl.totTimeInLocRead           1541978907                       # stat (Unspecified)
system.mem_ctrl.totTimeInLocWrite          1017423032                       # stat (Unspecified)
system.mem_ctrl.totTimeInFarRead                    0                       # stat (Unspecified)
system.mem_ctrl.numTotHits                    3882483                       # stat (Unspecified)
system.mem_ctrl.numTotMisses                        0                       # stat (Unspecified)
system.mem_ctrl.numColdMisses                       0                       # stat (Unspecified)
system.mem_ctrl.numHotMisses                        0                       # stat (Unspecified)
system.mem_ctrl.numRdMissClean                      0                       # stat (Unspecified)
system.mem_ctrl.numRdMissDirty                      0                       # stat (Unspecified)
system.mem_ctrl.numRdHit                      2574985                       # stat (Unspecified)
system.mem_ctrl.numWrMissClean                      0                       # stat (Unspecified)
system.mem_ctrl.numWrMissDirty                      0                       # stat (Unspecified)
system.mem_ctrl.numWrHit                      1307498                       # stat (Unspecified)
system.mem_ctrl.numRdHitDirty                 1103562                       # stat (Unspecified)
system.mem_ctrl.numRdHitClean                 1471423                       # stat (Unspecified)
system.mem_ctrl.numWrHitDirty                  560198                       # stat (Unspecified)
system.mem_ctrl.numWrHitClean                  747300                       # stat (Unspecified)
system.mem_ctrl.power_state.pwrStateResidencyTicks::UNDEFINED  10000004000                       # Cumulative time (in ticks) in various power states (Tick)
system.workload.inst.arm                            0                       # number of arm instructions executed (Count)
system.workload.inst.quiesce                        0                       # number of quiesce instructions executed (Count)

---------- End Simulation Statistics   ----------
