
---------- Begin Simulation Statistics ----------
simSeconds                                          2                       # Number of seconds simulated (Second)
simTicks                                 2000000000000                       # Number of ticks simulated (Tick)
finalTick                                25844651983500                       # Number of ticks from beginning of simulation (restored from checkpoints and never reset) (Tick)
simFreq                                  1000000000000                       # The number of ticks per simulated second ((Tick/Second))
hostSeconds                                   6038.20                       # Real time elapsed on the host (Second)
hostTickRate                                331224792                       # The number of ticks simulated per host second (ticks/s) ((Tick/Second))
hostMemory                                    8133784                       # Number of bytes of host memory used (Byte)
simInsts                                  99289432140                       # Number of instructions simulated (Count)
simOps                                   100051596315                       # Number of ops (including micro ops) simulated (Count)
hostInstRate                                 16443560                       # Simulator instruction rate (inst/s) ((Count/Second))
hostOpRate                                   16569784                       # Simulator op (including micro ops) rate (op/s) ((Count/Second))
system.atomicCpu0.numCycles                         0                       # Number of cpu cycles simulated (Cycle)
system.atomicCpu0.numWorkItemsStarted               0                       # Number of work items this cpu started (Count)
system.atomicCpu0.numWorkItemsCompleted             0                       # Number of work items this cpu completed (Count)
system.atomicCpu0.exec_context.thread_0.numInsts            0                       # Number of instructions committed (Count)
system.atomicCpu0.exec_context.thread_0.numOps            0                       # Number of ops (including micro ops) committed (Count)
system.atomicCpu0.exec_context.thread_0.numIntAluAccesses            0                       # Number of integer alu accesses (Count)
system.atomicCpu0.exec_context.thread_0.numFpAluAccesses            0                       # Number of float alu accesses (Count)
system.atomicCpu0.exec_context.thread_0.numVecAluAccesses            0                       # Number of vector alu accesses (Count)
system.atomicCpu0.exec_context.thread_0.numCallsReturns            0                       # Number of times a function call or return occured (Count)
system.atomicCpu0.exec_context.thread_0.numCondCtrlInsts            0                       # Number of instructions that are conditional controls (Count)
system.atomicCpu0.exec_context.thread_0.numIntInsts            0                       # Number of integer instructions (Count)
system.atomicCpu0.exec_context.thread_0.numFpInsts            0                       # Number of float instructions (Count)
system.atomicCpu0.exec_context.thread_0.numVecInsts            0                       # Number of vector instructions (Count)
system.atomicCpu0.exec_context.thread_0.numIntRegReads            0                       # Number of times the integer registers were read (Count)
system.atomicCpu0.exec_context.thread_0.numIntRegWrites            0                       # Number of times the integer registers were written (Count)
system.atomicCpu0.exec_context.thread_0.numFpRegReads            0                       # Number of times the floating registers were read (Count)
system.atomicCpu0.exec_context.thread_0.numFpRegWrites            0                       # Number of times the floating registers were written (Count)
system.atomicCpu0.exec_context.thread_0.numVecRegReads            0                       # Number of times the vector registers were read (Count)
system.atomicCpu0.exec_context.thread_0.numVecRegWrites            0                       # Number of times the vector registers were written (Count)
system.atomicCpu0.exec_context.thread_0.numVecPredRegReads            0                       # Number of times the predicate registers were read (Count)
system.atomicCpu0.exec_context.thread_0.numVecPredRegWrites            0                       # Number of times the predicate registers were written (Count)
system.atomicCpu0.exec_context.thread_0.numMiscRegReads            0                       # Number of times the Misc registers were read (Count)
system.atomicCpu0.exec_context.thread_0.numMiscRegWrites            0                       # Number of times the Misc registers were written (Count)
system.atomicCpu0.exec_context.thread_0.numMemRefs            0                       # Number of memory refs (Count)
system.atomicCpu0.exec_context.thread_0.numLoadInsts            0                       # Number of load instructions (Count)
system.atomicCpu0.exec_context.thread_0.numStoreInsts            0                       # Number of store instructions (Count)
system.atomicCpu0.exec_context.thread_0.numIdleCycles            0                       # Number of idle cycles (Cycle)
system.atomicCpu0.exec_context.thread_0.numBusyCycles            0                       # Number of busy cycles (Cycle)
system.atomicCpu0.exec_context.thread_0.notIdleFraction            0                       # Percentage of non-idle cycles (Ratio)
system.atomicCpu0.exec_context.thread_0.idleFraction            1                       # Percentage of idle cycles (Ratio)
system.atomicCpu0.exec_context.thread_0.statExecutedInstType::No_OpClass            0                       # Class of executed instruction. (Count)
system.atomicCpu0.exec_context.thread_0.statExecutedInstType::IntAlu            0                       # Class of executed instruction. (Count)
system.atomicCpu0.exec_context.thread_0.statExecutedInstType::IntMult            0                       # Class of executed instruction. (Count)
system.atomicCpu0.exec_context.thread_0.statExecutedInstType::IntDiv            0                       # Class of executed instruction. (Count)
system.atomicCpu0.exec_context.thread_0.statExecutedInstType::FloatAdd            0                       # Class of executed instruction. (Count)
system.atomicCpu0.exec_context.thread_0.statExecutedInstType::FloatCmp            0                       # Class of executed instruction. (Count)
system.atomicCpu0.exec_context.thread_0.statExecutedInstType::FloatCvt            0                       # Class of executed instruction. (Count)
system.atomicCpu0.exec_context.thread_0.statExecutedInstType::FloatMult            0                       # Class of executed instruction. (Count)
system.atomicCpu0.exec_context.thread_0.statExecutedInstType::FloatMultAcc            0                       # Class of executed instruction. (Count)
system.atomicCpu0.exec_context.thread_0.statExecutedInstType::FloatDiv            0                       # Class of executed instruction. (Count)
system.atomicCpu0.exec_context.thread_0.statExecutedInstType::FloatMisc            0                       # Class of executed instruction. (Count)
system.atomicCpu0.exec_context.thread_0.statExecutedInstType::FloatSqrt            0                       # Class of executed instruction. (Count)
system.atomicCpu0.exec_context.thread_0.statExecutedInstType::SimdAdd            0                       # Class of executed instruction. (Count)
system.atomicCpu0.exec_context.thread_0.statExecutedInstType::SimdAddAcc            0                       # Class of executed instruction. (Count)
system.atomicCpu0.exec_context.thread_0.statExecutedInstType::SimdAlu            0                       # Class of executed instruction. (Count)
system.atomicCpu0.exec_context.thread_0.statExecutedInstType::SimdCmp            0                       # Class of executed instruction. (Count)
system.atomicCpu0.exec_context.thread_0.statExecutedInstType::SimdCvt            0                       # Class of executed instruction. (Count)
system.atomicCpu0.exec_context.thread_0.statExecutedInstType::SimdMisc            0                       # Class of executed instruction. (Count)
system.atomicCpu0.exec_context.thread_0.statExecutedInstType::SimdMult            0                       # Class of executed instruction. (Count)
system.atomicCpu0.exec_context.thread_0.statExecutedInstType::SimdMultAcc            0                       # Class of executed instruction. (Count)
system.atomicCpu0.exec_context.thread_0.statExecutedInstType::SimdShift            0                       # Class of executed instruction. (Count)
system.atomicCpu0.exec_context.thread_0.statExecutedInstType::SimdShiftAcc            0                       # Class of executed instruction. (Count)
system.atomicCpu0.exec_context.thread_0.statExecutedInstType::SimdDiv            0                       # Class of executed instruction. (Count)
system.atomicCpu0.exec_context.thread_0.statExecutedInstType::SimdSqrt            0                       # Class of executed instruction. (Count)
system.atomicCpu0.exec_context.thread_0.statExecutedInstType::SimdFloatAdd            0                       # Class of executed instruction. (Count)
system.atomicCpu0.exec_context.thread_0.statExecutedInstType::SimdFloatAlu            0                       # Class of executed instruction. (Count)
system.atomicCpu0.exec_context.thread_0.statExecutedInstType::SimdFloatCmp            0                       # Class of executed instruction. (Count)
system.atomicCpu0.exec_context.thread_0.statExecutedInstType::SimdFloatCvt            0                       # Class of executed instruction. (Count)
system.atomicCpu0.exec_context.thread_0.statExecutedInstType::SimdFloatDiv            0                       # Class of executed instruction. (Count)
system.atomicCpu0.exec_context.thread_0.statExecutedInstType::SimdFloatMisc            0                       # Class of executed instruction. (Count)
system.atomicCpu0.exec_context.thread_0.statExecutedInstType::SimdFloatMult            0                       # Class of executed instruction. (Count)
system.atomicCpu0.exec_context.thread_0.statExecutedInstType::SimdFloatMultAcc            0                       # Class of executed instruction. (Count)
system.atomicCpu0.exec_context.thread_0.statExecutedInstType::SimdFloatSqrt            0                       # Class of executed instruction. (Count)
system.atomicCpu0.exec_context.thread_0.statExecutedInstType::SimdReduceAdd            0                       # Class of executed instruction. (Count)
system.atomicCpu0.exec_context.thread_0.statExecutedInstType::SimdReduceAlu            0                       # Class of executed instruction. (Count)
system.atomicCpu0.exec_context.thread_0.statExecutedInstType::SimdReduceCmp            0                       # Class of executed instruction. (Count)
system.atomicCpu0.exec_context.thread_0.statExecutedInstType::SimdFloatReduceAdd            0                       # Class of executed instruction. (Count)
system.atomicCpu0.exec_context.thread_0.statExecutedInstType::SimdFloatReduceCmp            0                       # Class of executed instruction. (Count)
system.atomicCpu0.exec_context.thread_0.statExecutedInstType::SimdAes            0                       # Class of executed instruction. (Count)
system.atomicCpu0.exec_context.thread_0.statExecutedInstType::SimdAesMix            0                       # Class of executed instruction. (Count)
system.atomicCpu0.exec_context.thread_0.statExecutedInstType::SimdSha1Hash            0                       # Class of executed instruction. (Count)
system.atomicCpu0.exec_context.thread_0.statExecutedInstType::SimdSha1Hash2            0                       # Class of executed instruction. (Count)
system.atomicCpu0.exec_context.thread_0.statExecutedInstType::SimdSha256Hash            0                       # Class of executed instruction. (Count)
system.atomicCpu0.exec_context.thread_0.statExecutedInstType::SimdSha256Hash2            0                       # Class of executed instruction. (Count)
system.atomicCpu0.exec_context.thread_0.statExecutedInstType::SimdShaSigma2            0                       # Class of executed instruction. (Count)
system.atomicCpu0.exec_context.thread_0.statExecutedInstType::SimdShaSigma3            0                       # Class of executed instruction. (Count)
system.atomicCpu0.exec_context.thread_0.statExecutedInstType::SimdPredAlu            0                       # Class of executed instruction. (Count)
system.atomicCpu0.exec_context.thread_0.statExecutedInstType::MemRead            0                       # Class of executed instruction. (Count)
system.atomicCpu0.exec_context.thread_0.statExecutedInstType::MemWrite            0                       # Class of executed instruction. (Count)
system.atomicCpu0.exec_context.thread_0.statExecutedInstType::FloatMemRead            0                       # Class of executed instruction. (Count)
system.atomicCpu0.exec_context.thread_0.statExecutedInstType::FloatMemWrite            0                       # Class of executed instruction. (Count)
system.atomicCpu0.exec_context.thread_0.statExecutedInstType::IprAccess            0                       # Class of executed instruction. (Count)
system.atomicCpu0.exec_context.thread_0.statExecutedInstType::InstPrefetch            0                       # Class of executed instruction. (Count)
system.atomicCpu0.exec_context.thread_0.statExecutedInstType::total            0                       # Class of executed instruction. (Count)
system.atomicCpu0.mmu.dtb.rdAccesses                0                       # TLB accesses on read requests (Count)
system.atomicCpu0.mmu.dtb.wrAccesses                0                       # TLB accesses on write requests (Count)
system.atomicCpu0.mmu.dtb.rdMisses                  0                       # TLB misses on read requests (Count)
system.atomicCpu0.mmu.dtb.wrMisses                  0                       # TLB misses on write requests (Count)
system.atomicCpu0.mmu.dtb.walker.power_state.pwrStateResidencyTicks::UNDEFINED 25844651983500                       # Cumulative time (in ticks) in various power states (Tick)
system.atomicCpu0.mmu.itb.rdAccesses                0                       # TLB accesses on read requests (Count)
system.atomicCpu0.mmu.itb.wrAccesses                0                       # TLB accesses on write requests (Count)
system.atomicCpu0.mmu.itb.rdMisses                  0                       # TLB misses on read requests (Count)
system.atomicCpu0.mmu.itb.wrMisses                  0                       # TLB misses on write requests (Count)
system.atomicCpu0.mmu.itb.walker.power_state.pwrStateResidencyTicks::UNDEFINED 25844651983500                       # Cumulative time (in ticks) in various power states (Tick)
system.atomicCpu0.power_state.pwrStateResidencyTicks::OFF 25844651983500                       # Cumulative time (in ticks) in various power states (Tick)
system.atomicCpu0.thread_0.numInsts                 0                       # Number of Instructions committed (Count)
system.atomicCpu0.thread_0.numOps                   0                       # Number of Ops committed (Count)
system.atomicCpu0.thread_0.numMemRefs               0                       # Number of Memory References (Count)
system.atomicCpu1.numCycles                         0                       # Number of cpu cycles simulated (Cycle)
system.atomicCpu1.numWorkItemsStarted               0                       # Number of work items this cpu started (Count)
system.atomicCpu1.numWorkItemsCompleted             0                       # Number of work items this cpu completed (Count)
system.atomicCpu1.exec_context.thread_0.numInsts            0                       # Number of instructions committed (Count)
system.atomicCpu1.exec_context.thread_0.numOps            0                       # Number of ops (including micro ops) committed (Count)
system.atomicCpu1.exec_context.thread_0.numIntAluAccesses            0                       # Number of integer alu accesses (Count)
system.atomicCpu1.exec_context.thread_0.numFpAluAccesses            0                       # Number of float alu accesses (Count)
system.atomicCpu1.exec_context.thread_0.numVecAluAccesses            0                       # Number of vector alu accesses (Count)
system.atomicCpu1.exec_context.thread_0.numCallsReturns            0                       # Number of times a function call or return occured (Count)
system.atomicCpu1.exec_context.thread_0.numCondCtrlInsts            0                       # Number of instructions that are conditional controls (Count)
system.atomicCpu1.exec_context.thread_0.numIntInsts            0                       # Number of integer instructions (Count)
system.atomicCpu1.exec_context.thread_0.numFpInsts            0                       # Number of float instructions (Count)
system.atomicCpu1.exec_context.thread_0.numVecInsts            0                       # Number of vector instructions (Count)
system.atomicCpu1.exec_context.thread_0.numIntRegReads            0                       # Number of times the integer registers were read (Count)
system.atomicCpu1.exec_context.thread_0.numIntRegWrites            0                       # Number of times the integer registers were written (Count)
system.atomicCpu1.exec_context.thread_0.numFpRegReads            0                       # Number of times the floating registers were read (Count)
system.atomicCpu1.exec_context.thread_0.numFpRegWrites            0                       # Number of times the floating registers were written (Count)
system.atomicCpu1.exec_context.thread_0.numVecRegReads            0                       # Number of times the vector registers were read (Count)
system.atomicCpu1.exec_context.thread_0.numVecRegWrites            0                       # Number of times the vector registers were written (Count)
system.atomicCpu1.exec_context.thread_0.numVecPredRegReads            0                       # Number of times the predicate registers were read (Count)
system.atomicCpu1.exec_context.thread_0.numVecPredRegWrites            0                       # Number of times the predicate registers were written (Count)
system.atomicCpu1.exec_context.thread_0.numMiscRegReads            0                       # Number of times the Misc registers were read (Count)
system.atomicCpu1.exec_context.thread_0.numMiscRegWrites            0                       # Number of times the Misc registers were written (Count)
system.atomicCpu1.exec_context.thread_0.numMemRefs            0                       # Number of memory refs (Count)
system.atomicCpu1.exec_context.thread_0.numLoadInsts            0                       # Number of load instructions (Count)
system.atomicCpu1.exec_context.thread_0.numStoreInsts            0                       # Number of store instructions (Count)
system.atomicCpu1.exec_context.thread_0.numIdleCycles            0                       # Number of idle cycles (Cycle)
system.atomicCpu1.exec_context.thread_0.numBusyCycles            0                       # Number of busy cycles (Cycle)
system.atomicCpu1.exec_context.thread_0.notIdleFraction            0                       # Percentage of non-idle cycles (Ratio)
system.atomicCpu1.exec_context.thread_0.idleFraction            1                       # Percentage of idle cycles (Ratio)
system.atomicCpu1.exec_context.thread_0.statExecutedInstType::No_OpClass            0                       # Class of executed instruction. (Count)
system.atomicCpu1.exec_context.thread_0.statExecutedInstType::IntAlu            0                       # Class of executed instruction. (Count)
system.atomicCpu1.exec_context.thread_0.statExecutedInstType::IntMult            0                       # Class of executed instruction. (Count)
system.atomicCpu1.exec_context.thread_0.statExecutedInstType::IntDiv            0                       # Class of executed instruction. (Count)
system.atomicCpu1.exec_context.thread_0.statExecutedInstType::FloatAdd            0                       # Class of executed instruction. (Count)
system.atomicCpu1.exec_context.thread_0.statExecutedInstType::FloatCmp            0                       # Class of executed instruction. (Count)
system.atomicCpu1.exec_context.thread_0.statExecutedInstType::FloatCvt            0                       # Class of executed instruction. (Count)
system.atomicCpu1.exec_context.thread_0.statExecutedInstType::FloatMult            0                       # Class of executed instruction. (Count)
system.atomicCpu1.exec_context.thread_0.statExecutedInstType::FloatMultAcc            0                       # Class of executed instruction. (Count)
system.atomicCpu1.exec_context.thread_0.statExecutedInstType::FloatDiv            0                       # Class of executed instruction. (Count)
system.atomicCpu1.exec_context.thread_0.statExecutedInstType::FloatMisc            0                       # Class of executed instruction. (Count)
system.atomicCpu1.exec_context.thread_0.statExecutedInstType::FloatSqrt            0                       # Class of executed instruction. (Count)
system.atomicCpu1.exec_context.thread_0.statExecutedInstType::SimdAdd            0                       # Class of executed instruction. (Count)
system.atomicCpu1.exec_context.thread_0.statExecutedInstType::SimdAddAcc            0                       # Class of executed instruction. (Count)
system.atomicCpu1.exec_context.thread_0.statExecutedInstType::SimdAlu            0                       # Class of executed instruction. (Count)
system.atomicCpu1.exec_context.thread_0.statExecutedInstType::SimdCmp            0                       # Class of executed instruction. (Count)
system.atomicCpu1.exec_context.thread_0.statExecutedInstType::SimdCvt            0                       # Class of executed instruction. (Count)
system.atomicCpu1.exec_context.thread_0.statExecutedInstType::SimdMisc            0                       # Class of executed instruction. (Count)
system.atomicCpu1.exec_context.thread_0.statExecutedInstType::SimdMult            0                       # Class of executed instruction. (Count)
system.atomicCpu1.exec_context.thread_0.statExecutedInstType::SimdMultAcc            0                       # Class of executed instruction. (Count)
system.atomicCpu1.exec_context.thread_0.statExecutedInstType::SimdShift            0                       # Class of executed instruction. (Count)
system.atomicCpu1.exec_context.thread_0.statExecutedInstType::SimdShiftAcc            0                       # Class of executed instruction. (Count)
system.atomicCpu1.exec_context.thread_0.statExecutedInstType::SimdDiv            0                       # Class of executed instruction. (Count)
system.atomicCpu1.exec_context.thread_0.statExecutedInstType::SimdSqrt            0                       # Class of executed instruction. (Count)
system.atomicCpu1.exec_context.thread_0.statExecutedInstType::SimdFloatAdd            0                       # Class of executed instruction. (Count)
system.atomicCpu1.exec_context.thread_0.statExecutedInstType::SimdFloatAlu            0                       # Class of executed instruction. (Count)
system.atomicCpu1.exec_context.thread_0.statExecutedInstType::SimdFloatCmp            0                       # Class of executed instruction. (Count)
system.atomicCpu1.exec_context.thread_0.statExecutedInstType::SimdFloatCvt            0                       # Class of executed instruction. (Count)
system.atomicCpu1.exec_context.thread_0.statExecutedInstType::SimdFloatDiv            0                       # Class of executed instruction. (Count)
system.atomicCpu1.exec_context.thread_0.statExecutedInstType::SimdFloatMisc            0                       # Class of executed instruction. (Count)
system.atomicCpu1.exec_context.thread_0.statExecutedInstType::SimdFloatMult            0                       # Class of executed instruction. (Count)
system.atomicCpu1.exec_context.thread_0.statExecutedInstType::SimdFloatMultAcc            0                       # Class of executed instruction. (Count)
system.atomicCpu1.exec_context.thread_0.statExecutedInstType::SimdFloatSqrt            0                       # Class of executed instruction. (Count)
system.atomicCpu1.exec_context.thread_0.statExecutedInstType::SimdReduceAdd            0                       # Class of executed instruction. (Count)
system.atomicCpu1.exec_context.thread_0.statExecutedInstType::SimdReduceAlu            0                       # Class of executed instruction. (Count)
system.atomicCpu1.exec_context.thread_0.statExecutedInstType::SimdReduceCmp            0                       # Class of executed instruction. (Count)
system.atomicCpu1.exec_context.thread_0.statExecutedInstType::SimdFloatReduceAdd            0                       # Class of executed instruction. (Count)
system.atomicCpu1.exec_context.thread_0.statExecutedInstType::SimdFloatReduceCmp            0                       # Class of executed instruction. (Count)
system.atomicCpu1.exec_context.thread_0.statExecutedInstType::SimdAes            0                       # Class of executed instruction. (Count)
system.atomicCpu1.exec_context.thread_0.statExecutedInstType::SimdAesMix            0                       # Class of executed instruction. (Count)
system.atomicCpu1.exec_context.thread_0.statExecutedInstType::SimdSha1Hash            0                       # Class of executed instruction. (Count)
system.atomicCpu1.exec_context.thread_0.statExecutedInstType::SimdSha1Hash2            0                       # Class of executed instruction. (Count)
system.atomicCpu1.exec_context.thread_0.statExecutedInstType::SimdSha256Hash            0                       # Class of executed instruction. (Count)
system.atomicCpu1.exec_context.thread_0.statExecutedInstType::SimdSha256Hash2            0                       # Class of executed instruction. (Count)
system.atomicCpu1.exec_context.thread_0.statExecutedInstType::SimdShaSigma2            0                       # Class of executed instruction. (Count)
system.atomicCpu1.exec_context.thread_0.statExecutedInstType::SimdShaSigma3            0                       # Class of executed instruction. (Count)
system.atomicCpu1.exec_context.thread_0.statExecutedInstType::SimdPredAlu            0                       # Class of executed instruction. (Count)
system.atomicCpu1.exec_context.thread_0.statExecutedInstType::MemRead            0                       # Class of executed instruction. (Count)
system.atomicCpu1.exec_context.thread_0.statExecutedInstType::MemWrite            0                       # Class of executed instruction. (Count)
system.atomicCpu1.exec_context.thread_0.statExecutedInstType::FloatMemRead            0                       # Class of executed instruction. (Count)
system.atomicCpu1.exec_context.thread_0.statExecutedInstType::FloatMemWrite            0                       # Class of executed instruction. (Count)
system.atomicCpu1.exec_context.thread_0.statExecutedInstType::IprAccess            0                       # Class of executed instruction. (Count)
system.atomicCpu1.exec_context.thread_0.statExecutedInstType::InstPrefetch            0                       # Class of executed instruction. (Count)
system.atomicCpu1.exec_context.thread_0.statExecutedInstType::total            0                       # Class of executed instruction. (Count)
system.atomicCpu1.mmu.dtb.rdAccesses                0                       # TLB accesses on read requests (Count)
system.atomicCpu1.mmu.dtb.wrAccesses                0                       # TLB accesses on write requests (Count)
system.atomicCpu1.mmu.dtb.rdMisses                  0                       # TLB misses on read requests (Count)
system.atomicCpu1.mmu.dtb.wrMisses                  0                       # TLB misses on write requests (Count)
system.atomicCpu1.mmu.dtb.walker.power_state.pwrStateResidencyTicks::UNDEFINED 25844651983500                       # Cumulative time (in ticks) in various power states (Tick)
system.atomicCpu1.mmu.itb.rdAccesses                0                       # TLB accesses on read requests (Count)
system.atomicCpu1.mmu.itb.wrAccesses                0                       # TLB accesses on write requests (Count)
system.atomicCpu1.mmu.itb.rdMisses                  0                       # TLB misses on read requests (Count)
system.atomicCpu1.mmu.itb.wrMisses                  0                       # TLB misses on write requests (Count)
system.atomicCpu1.mmu.itb.walker.power_state.pwrStateResidencyTicks::UNDEFINED 25844651983500                       # Cumulative time (in ticks) in various power states (Tick)
system.atomicCpu1.power_state.pwrStateResidencyTicks::OFF 25844651983500                       # Cumulative time (in ticks) in various power states (Tick)
system.atomicCpu1.thread_0.numInsts                 0                       # Number of Instructions committed (Count)
system.atomicCpu1.thread_0.numOps                   0                       # Number of Ops committed (Count)
system.atomicCpu1.thread_0.numMemRefs               0                       # Number of Memory References (Count)
system.caches.delayHistogram::bucket_size          128                       # delay histogram for all message (Unspecified)
system.caches.delayHistogram::max_bucket         1279                       # delay histogram for all message (Unspecified)
system.caches.delayHistogram::samples       325415198                       # delay histogram for all message (Unspecified)
system.caches.delayHistogram::mean           0.012325                       # delay histogram for all message (Unspecified)
system.caches.delayHistogram::stdev          0.306760                       # delay histogram for all message (Unspecified)
system.caches.delayHistogram             |   325415197    100.00%    100.00% |           0      0.00%    100.00% |           0      0.00%    100.00% |           0      0.00%    100.00% |           0      0.00%    100.00% |           1      0.00%    100.00% |           0      0.00%    100.00% |           0      0.00%    100.00% |           0      0.00%    100.00% |           0      0.00%    100.00% # delay histogram for all message (Unspecified)
system.caches.delayHistogram::total         325415198                       # delay histogram for all message (Unspecified)
system.caches.m_outstandReqHistSeqr::bucket_size            1                       (Unspecified)
system.caches.m_outstandReqHistSeqr::max_bucket            9                       (Unspecified)
system.caches.m_outstandReqHistSeqr::samples   1647110933                       (Unspecified)
system.caches.m_outstandReqHistSeqr::mean     1.000000                       (Unspecified)
system.caches.m_outstandReqHistSeqr::gmean     1.000000                       (Unspecified)
system.caches.m_outstandReqHistSeqr::stdev     0.000146                       (Unspecified)
system.caches.m_outstandReqHistSeqr      |           0      0.00%      0.00% |  1647110898    100.00%    100.00% |          35      0.00%    100.00% |           0      0.00%    100.00% |           0      0.00%    100.00% |           0      0.00%    100.00% |           0      0.00%    100.00% |           0      0.00%    100.00% |           0      0.00%    100.00% |           0      0.00%    100.00% (Unspecified)
system.caches.m_outstandReqHistSeqr::total   1647110933                       (Unspecified)
system.caches.m_latencyHistSeqr::bucket_size          512                       (Unspecified)
system.caches.m_latencyHistSeqr::max_bucket         5119                       (Unspecified)
system.caches.m_latencyHistSeqr::samples   1647110931                       (Unspecified)
system.caches.m_latencyHistSeqr::mean        8.711843                       (Unspecified)
system.caches.m_latencyHistSeqr::gmean       1.236670                       (Unspecified)
system.caches.m_latencyHistSeqr::stdev      64.575535                       (Unspecified)
system.caches.m_latencyHistSeqr          |  1643388833     99.77%     99.77% |     3208005      0.19%     99.97% |       38876      0.00%     99.97% |      456434      0.03%    100.00% |       18734      0.00%    100.00% |          49      0.00%    100.00% |           0      0.00%    100.00% |           0      0.00%    100.00% |           0      0.00%    100.00% |           0      0.00%    100.00% (Unspecified)
system.caches.m_latencyHistSeqr::total     1647110931                       (Unspecified)
system.caches.m_hitLatencyHistSeqr::bucket_size            1                       (Unspecified)
system.caches.m_hitLatencyHistSeqr::max_bucket            9                       (Unspecified)
system.caches.m_hitLatencyHistSeqr::samples   1543561805                       (Unspecified)
system.caches.m_hitLatencyHistSeqr::mean            1                       (Unspecified)
system.caches.m_hitLatencyHistSeqr::gmean            1                       (Unspecified)
system.caches.m_hitLatencyHistSeqr       |           0      0.00%      0.00% |  1543561805    100.00%    100.00% |           0      0.00%    100.00% |           0      0.00%    100.00% |           0      0.00%    100.00% |           0      0.00%    100.00% |           0      0.00%    100.00% |           0      0.00%    100.00% |           0      0.00%    100.00% |           0      0.00%    100.00% (Unspecified)
system.caches.m_hitLatencyHistSeqr::total   1543561805                       (Unspecified)
system.caches.m_missLatencyHistSeqr::bucket_size          512                       (Unspecified)
system.caches.m_missLatencyHistSeqr::max_bucket         5119                       (Unspecified)
system.caches.m_missLatencyHistSeqr::samples    103549126                       (Unspecified)
system.caches.m_missLatencyHistSeqr::mean   123.668935                       (Unspecified)
system.caches.m_missLatencyHistSeqr::gmean    29.338782                       (Unspecified)
system.caches.m_missLatencyHistSeqr::stdev   228.536014                       (Unspecified)
system.caches.m_missLatencyHistSeqr      |    99827028     96.41%     96.41% |     3208005      3.10%     99.50% |       38876      0.04%     99.54% |      456434      0.44%     99.98% |       18734      0.02%    100.00% |          49      0.00%    100.00% |           0      0.00%    100.00% |           0      0.00%    100.00% |           0      0.00%    100.00% |           0      0.00%    100.00% (Unspecified)
system.caches.m_missLatencyHistSeqr::total    103549126                       (Unspecified)
system.caches.delayVCHist.vnet_0::bucket_size          128                       # delay histogram for vnet_0 (Unspecified)
system.caches.delayVCHist.vnet_0::max_bucket         1279                       # delay histogram for vnet_0 (Unspecified)
system.caches.delayVCHist.vnet_0::samples    151352117                       # delay histogram for vnet_0 (Unspecified)
system.caches.delayVCHist.vnet_0::mean       0.026186                       # delay histogram for vnet_0 (Unspecified)
system.caches.delayVCHist.vnet_0::stdev      0.447961                       # delay histogram for vnet_0 (Unspecified)
system.caches.delayVCHist.vnet_0         |   151352116    100.00%    100.00% |           0      0.00%    100.00% |           0      0.00%    100.00% |           0      0.00%    100.00% |           0      0.00%    100.00% |           1      0.00%    100.00% |           0      0.00%    100.00% |           0      0.00%    100.00% |           0      0.00%    100.00% |           0      0.00%    100.00% # delay histogram for vnet_0 (Unspecified)
system.caches.delayVCHist.vnet_0::total     151352117                       # delay histogram for vnet_0 (Unspecified)
system.caches.delayVCHist.vnet_1::bucket_size            1                       # delay histogram for vnet_1 (Unspecified)
system.caches.delayVCHist.vnet_1::max_bucket            9                       # delay histogram for vnet_1 (Unspecified)
system.caches.delayVCHist.vnet_1::samples    173868782                       # delay histogram for vnet_1 (Unspecified)
system.caches.delayVCHist.vnet_1::mean       0.000273                       # delay histogram for vnet_1 (Unspecified)
system.caches.delayVCHist.vnet_1::stdev      0.033553                       # delay histogram for vnet_1 (Unspecified)
system.caches.delayVCHist.vnet_1         |   173856106     99.99%     99.99% |           0      0.00%     99.99% |        3099      0.00%     99.99% |           0      0.00%     99.99% |        8153      0.00%    100.00% |           0      0.00%    100.00% |        1365      0.00%    100.00% |           0      0.00%    100.00% |          59      0.00%    100.00% |           0      0.00%    100.00% # delay histogram for vnet_1 (Unspecified)
system.caches.delayVCHist.vnet_1::total     173868782                       # delay histogram for vnet_1 (Unspecified)
system.caches.delayVCHist.vnet_2::bucket_size            1                       # delay histogram for vnet_2 (Unspecified)
system.caches.delayVCHist.vnet_2::max_bucket            9                       # delay histogram for vnet_2 (Unspecified)
system.caches.delayVCHist.vnet_2::samples       194299                       # delay histogram for vnet_2 (Unspecified)
system.caches.delayVCHist.vnet_2::mean       0.000607                       # delay histogram for vnet_2 (Unspecified)
system.caches.delayVCHist.vnet_2::stdev      0.034846                       # delay histogram for vnet_2 (Unspecified)
system.caches.delayVCHist.vnet_2         |      194240     99.97%     99.97% |           0      0.00%     99.97% |          59      0.03%    100.00% |           0      0.00%    100.00% |           0      0.00%    100.00% |           0      0.00%    100.00% |           0      0.00%    100.00% |           0      0.00%    100.00% |           0      0.00%    100.00% |           0      0.00%    100.00% # delay histogram for vnet_2 (Unspecified)
system.caches.delayVCHist.vnet_2::total        194299                       # delay histogram for vnet_2 (Unspecified)
system.caches.L1Cache_Controller.Load    |   188036725     50.03%     50.03% |   187844934     49.97%    100.00% (Unspecified)
system.caches.L1Cache_Controller.Load::total    375881659                       (Unspecified)
system.caches.L1Cache_Controller.Ifetch  |   633809114     50.02%     50.02% |   633276098     49.98%    100.00% (Unspecified)
system.caches.L1Cache_Controller.Ifetch::total   1267085212                       (Unspecified)
system.caches.L1Cache_Controller.Store   |     2149134     51.86%     51.86% |     1994928     48.14%    100.00% (Unspecified)
system.caches.L1Cache_Controller.Store::total      4144062                       (Unspecified)
system.caches.L1Cache_Controller.Inv     |       46210     43.99%     43.99% |       58847     56.01%    100.00% (Unspecified)
system.caches.L1Cache_Controller.Inv::total       105057                       (Unspecified)
system.caches.L1Cache_Controller.L1_Replacement |    51726012     50.01%     50.01% |    51703035     49.99%    100.00% (Unspecified)
system.caches.L1Cache_Controller.L1_Replacement::total    103429047                       (Unspecified)
system.caches.L1Cache_Controller.Fwd_GETX |          21      2.63%      2.63% |         777     97.37%    100.00% (Unspecified)
system.caches.L1Cache_Controller.Fwd_GETX::total          798                       (Unspecified)
system.caches.L1Cache_Controller.Fwd_GETS |       50356     56.94%     56.94% |       38088     43.06%    100.00% (Unspecified)
system.caches.L1Cache_Controller.Fwd_GETS::total        88444                       (Unspecified)
system.caches.L1Cache_Controller.Data    |        4893     99.67%     99.67% |          16      0.33%    100.00% (Unspecified)
system.caches.L1Cache_Controller.Data::total         4909                       (Unspecified)
system.caches.L1Cache_Controller.Data_Exclusive |    11825127     50.02%     50.02% |    11816999     49.98%    100.00% (Unspecified)
system.caches.L1Cache_Controller.Data_Exclusive::total     23642126                       (Unspecified)
system.caches.L1Cache_Controller.DataS_fromL1 |       38088     43.06%     43.06% |       50356     56.94%    100.00% (Unspecified)
system.caches.L1Cache_Controller.DataS_fromL1::total        88444                       (Unspecified)
system.caches.L1Cache_Controller.Data_all_Acks |    39882559     50.01%     50.01% |    39866812     49.99%    100.00% (Unspecified)
system.caches.L1Cache_Controller.Data_all_Acks::total     79749371                       (Unspecified)
system.caches.L1Cache_Controller.Ack     |       36065     56.11%     56.11% |       28211     43.89%    100.00% (Unspecified)
system.caches.L1Cache_Controller.Ack::total        64276                       (Unspecified)
system.caches.L1Cache_Controller.Ack_all |       40958     59.20%     59.20% |       28227     40.80%    100.00% (Unspecified)
system.caches.L1Cache_Controller.Ack_all::total        69185                       (Unspecified)
system.caches.L1Cache_Controller.WB_Ack  |    11921344     50.07%     50.07% |    11889648     49.93%    100.00% (Unspecified)
system.caches.L1Cache_Controller.WB_Ack::total     23810992                       (Unspecified)
system.caches.L1Cache_Controller.NP.Load |    51555888     49.98%     49.98% |    51587167     50.02%    100.00% (Unspecified)
system.caches.L1Cache_Controller.NP.Load::total    103143055                       (Unspecified)
system.caches.L1Cache_Controller.NP.Ifetch |       66592     62.70%     62.70% |       39619     37.30%    100.00% (Unspecified)
system.caches.L1Cache_Controller.NP.Ifetch::total       106211                       (Unspecified)
system.caches.L1Cache_Controller.NP.Store |      112187     56.91%     56.91% |       84953     43.09%    100.00% (Unspecified)
system.caches.L1Cache_Controller.NP.Store::total       197140                       (Unspecified)
system.caches.L1Cache_Controller.NP.Inv  |       29311     46.42%     46.42% |       33833     53.58%    100.00% (Unspecified)
system.caches.L1Cache_Controller.NP.Inv::total        63144                       (Unspecified)
system.caches.L1Cache_Controller.I.Load  |          19      0.23%      0.23% |        8132     99.77%    100.00% (Unspecified)
system.caches.L1Cache_Controller.I.Load::total         8151                       (Unspecified)
system.caches.L1Cache_Controller.I.Ifetch |       15977     52.76%     52.76% |       14307     47.24%    100.00% (Unspecified)
system.caches.L1Cache_Controller.I.Ifetch::total        30284                       (Unspecified)
system.caches.L1Cache_Controller.I.Store |           5     45.45%     45.45% |           6     54.55%    100.00% (Unspecified)
system.caches.L1Cache_Controller.I.Store::total           11                       (Unspecified)
system.caches.L1Cache_Controller.I.L1_Replacement |         646     17.75%     17.75% |        2994     82.25%    100.00% (Unspecified)
system.caches.L1Cache_Controller.I.L1_Replacement::total         3640                       (Unspecified)
system.caches.L1Cache_Controller.S.Load  |    22268526     49.83%     49.83% |    22422549     50.17%    100.00% (Unspecified)
system.caches.L1Cache_Controller.S.Load::total     44691075                       (Unspecified)
system.caches.L1Cache_Controller.S.Ifetch |   633726545     50.02%     50.02% |   633222172     49.98%    100.00% (Unspecified)
system.caches.L1Cache_Controller.S.Ifetch::total   1266948717                       (Unspecified)
system.caches.L1Cache_Controller.S.Store |       36065     56.11%     56.11% |       28211     43.89%    100.00% (Unspecified)
system.caches.L1Cache_Controller.S.Store::total        64276                       (Unspecified)
system.caches.L1Cache_Controller.S.Inv   |       16892     40.32%     40.32% |       24999     59.68%    100.00% (Unspecified)
system.caches.L1Cache_Controller.S.Inv::total        41891                       (Unspecified)
system.caches.L1Cache_Controller.S.L1_Replacement |    39804022     50.00%     50.00% |    39810393     50.00%    100.00% (Unspecified)
system.caches.L1Cache_Controller.S.L1_Replacement::total     79614415                       (Unspecified)
system.caches.L1Cache_Controller.E.Load  |   112578159     50.05%     50.05% |   112340632     49.95%    100.00% (Unspecified)
system.caches.L1Cache_Controller.E.Load::total    224918791                       (Unspecified)
system.caches.L1Cache_Controller.E.Store |       86849     53.07%     53.07% |       76804     46.93%    100.00% (Unspecified)
system.caches.L1Cache_Controller.E.Store::total       163653                       (Unspecified)
system.caches.L1Cache_Controller.E.Inv   |           7     70.00%     70.00% |           3     30.00%    100.00% (Unspecified)
system.caches.L1Cache_Controller.E.Inv::total           10                       (Unspecified)
system.caches.L1Cache_Controller.E.L1_Replacement |    11701210     50.00%     50.00% |    11702720     50.00%    100.00% (Unspecified)
system.caches.L1Cache_Controller.E.L1_Replacement::total     23403930                       (Unspecified)
system.caches.L1Cache_Controller.E.Fwd_GETX |           2      0.26%      0.26% |         765     99.74%    100.00% (Unspecified)
system.caches.L1Cache_Controller.E.Fwd_GETX::total          767                       (Unspecified)
system.caches.L1Cache_Controller.E.Fwd_GETS |       35408     50.25%     50.25% |       35059     49.75%    100.00% (Unspecified)
system.caches.L1Cache_Controller.E.Fwd_GETS::total        70467                       (Unspecified)
system.caches.L1Cache_Controller.M.Load  |     1634133     52.37%     52.37% |     1486454     47.63%    100.00% (Unspecified)
system.caches.L1Cache_Controller.M.Load::total      3120587                       (Unspecified)
system.caches.L1Cache_Controller.M.Store |     1914028     51.47%     51.47% |     1804954     48.53%    100.00% (Unspecified)
system.caches.L1Cache_Controller.M.Store::total      3718982                       (Unspecified)
system.caches.L1Cache_Controller.M.Inv   |           0      0.00%      0.00% |           1    100.00%    100.00% (Unspecified)
system.caches.L1Cache_Controller.M.Inv::total            1                       (Unspecified)
system.caches.L1Cache_Controller.M.L1_Replacement |      220134     54.08%     54.08% |      186928     45.92%    100.00% (Unspecified)
system.caches.L1Cache_Controller.M.L1_Replacement::total       407062                       (Unspecified)
system.caches.L1Cache_Controller.M.Fwd_GETX |          19     61.29%     61.29% |          12     38.71%    100.00% (Unspecified)
system.caches.L1Cache_Controller.M.Fwd_GETX::total           31                       (Unspecified)
system.caches.L1Cache_Controller.M.Fwd_GETS |       14948     83.16%     83.16% |        3027     16.84%    100.00% (Unspecified)
system.caches.L1Cache_Controller.M.Fwd_GETS::total        17975                       (Unspecified)
system.caches.L1Cache_Controller.IS.Inv  |           0      0.00%      0.00% |          11    100.00%    100.00% (Unspecified)
system.caches.L1Cache_Controller.IS.Inv::total           11                       (Unspecified)
system.caches.L1Cache_Controller.IS.Data_Exclusive |    11825127     50.02%     50.02% |    11816999     49.98%    100.00% (Unspecified)
system.caches.L1Cache_Controller.IS.Data_Exclusive::total     23642126                       (Unspecified)
system.caches.L1Cache_Controller.IS.DataS_fromL1 |       38088     43.07%     43.07% |       50345     56.93%    100.00% (Unspecified)
system.caches.L1Cache_Controller.IS.DataS_fromL1::total        88433                       (Unspecified)
system.caches.L1Cache_Controller.IS.Data_all_Acks |    39775260     50.00%     50.00% |    39781869     50.00%    100.00% (Unspecified)
system.caches.L1Cache_Controller.IS.Data_all_Acks::total     79557129                       (Unspecified)
system.caches.L1Cache_Controller.IM.Data |        4893     99.67%     99.67% |          16      0.33%    100.00% (Unspecified)
system.caches.L1Cache_Controller.IM.Data::total         4909                       (Unspecified)
system.caches.L1Cache_Controller.IM.Data_all_Acks |      107299     55.81%     55.81% |       84943     44.19%    100.00% (Unspecified)
system.caches.L1Cache_Controller.IM.Data_all_Acks::total       192242                       (Unspecified)
system.caches.L1Cache_Controller.SM.Ack  |       36065     56.11%     56.11% |       28211     43.89%    100.00% (Unspecified)
system.caches.L1Cache_Controller.SM.Ack::total        64276                       (Unspecified)
system.caches.L1Cache_Controller.SM.Ack_all |       40958     59.20%     59.20% |       28227     40.80%    100.00% (Unspecified)
system.caches.L1Cache_Controller.SM.Ack_all::total        69185                       (Unspecified)
system.caches.L1Cache_Controller.IS_I.DataS_fromL1 |           0      0.00%      0.00% |          11    100.00%    100.00% (Unspecified)
system.caches.L1Cache_Controller.IS_I.DataS_fromL1::total           11                       (Unspecified)
system.caches.L1Cache_Controller.M_I.Fwd_GETS |           0      0.00%      0.00% |           2    100.00%    100.00% (Unspecified)
system.caches.L1Cache_Controller.M_I.Fwd_GETS::total            2                       (Unspecified)
system.caches.L1Cache_Controller.M_I.WB_Ack |    11921344     50.07%     50.07% |    11889646     49.93%    100.00% (Unspecified)
system.caches.L1Cache_Controller.M_I.WB_Ack::total     23810990                       (Unspecified)
system.caches.L1Cache_Controller.SINK_WB_ACK.WB_Ack |           0      0.00%      0.00% |           2    100.00%    100.00% (Unspecified)
system.caches.L1Cache_Controller.SINK_WB_ACK.WB_Ack::total            2                       (Unspecified)
system.caches.Directory_Controller.Fetch     23223118      0.00%      0.00% (Unspecified)
system.caches.Directory_Controller.Data        167726      0.00%      0.00% (Unspecified)
system.caches.Directory_Controller.Memory_Data     23223117      0.00%      0.00% (Unspecified)
system.caches.Directory_Controller.Memory_Ack       167726      0.00%      0.00% (Unspecified)
system.caches.Directory_Controller.CleanReplacement     22924320      0.00%      0.00% (Unspecified)
system.caches.Directory_Controller.I.Fetch     23223118      0.00%      0.00% (Unspecified)
system.caches.Directory_Controller.M.Data       167726      0.00%      0.00% (Unspecified)
system.caches.Directory_Controller.M.CleanReplacement     22924320      0.00%      0.00% (Unspecified)
system.caches.Directory_Controller.IM.Memory_Data     23223117      0.00%      0.00% (Unspecified)
system.caches.Directory_Controller.MI.Memory_Ack       167726      0.00%      0.00% (Unspecified)
system.caches.L2Cache_Controller.L1_GET_INSTR |       12226      8.96%      8.96% |       20695     15.16%     24.12% |       17410     12.76%     36.87% |        5900      4.32%     41.20% |       13001      9.52%     50.72% |       18027     13.21%     63.93% |       22220     16.28%     80.21% |       27016     19.79%    100.00% (Unspecified)
system.caches.L2Cache_Controller.L1_GET_INSTR::total       136495                       (Unspecified)
system.caches.L2Cache_Controller.L1_GETS |    12934091     12.54%     12.54% |    12923065     12.53%     25.07% |    12881594     12.49%     37.55% |    12872384     12.48%     50.03% |    12927693     12.53%     62.56% |    12876459     12.48%     75.05% |    12864730     12.47%     87.52% |    12876008     12.48%    100.00% (Unspecified)
system.caches.L2Cache_Controller.L1_GETS::total    103156024                       (Unspecified)
system.caches.L2Cache_Controller.L1_GETX |       34170     17.33%     17.33% |       20119     10.20%     27.54% |       14201      7.20%     34.74% |       20111     10.20%     44.94% |       20148     10.22%     55.16% |       36110     18.32%     73.48% |       26145     13.26%     86.74% |       26148     13.26%    100.00% (Unspecified)
system.caches.L2Cache_Controller.L1_GETX::total       197152                       (Unspecified)
system.caches.L2Cache_Controller.L1_UPGRADE |        7071     10.35%     10.35% |        8658     12.67%     23.02% |        7037     10.30%     33.32% |        7030     10.29%     43.60% |        7041     10.30%     53.91% |        7032     10.29%     64.20% |       17386     25.44%     89.64% |        7077     10.36%    100.00% (Unspecified)
system.caches.L2Cache_Controller.L1_UPGRADE::total        68332                       (Unspecified)
system.caches.L2Cache_Controller.L1_PUTX |     2983074     12.53%     12.53% |     2983811     12.53%     25.06% |     2955957     12.41%     37.47% |     2971404     12.48%     49.95% |     2977078     12.50%     62.46% |     2982102     12.52%     74.98% |     2979982     12.52%     87.49% |     2977586     12.51%    100.00% (Unspecified)
system.caches.L2Cache_Controller.L1_PUTX::total     23810994                       (Unspecified)
system.caches.L2Cache_Controller.L2_Replacement |       20966     12.50%     12.50% |       20973     12.50%     25.00% |       21047     12.55%     37.55% |       20958     12.50%     50.05% |       20948     12.49%     62.54% |       20946     12.49%     75.03% |       20943     12.49%     87.51% |       20945     12.49%    100.00% (Unspecified)
system.caches.L2Cache_Controller.L2_Replacement::total       167726                       (Unspecified)
system.caches.L2Cache_Controller.L2_Replacement_clean |     2865654     12.50%     12.50% |     2865961     12.50%     25.00% |     2865196     12.50%     37.50% |     2865392     12.50%     50.00% |     2865973     12.50%     62.50% |     2865511     12.50%     75.00% |     2865473     12.50%     87.50% |     2865160     12.50%    100.00% (Unspecified)
system.caches.L2Cache_Controller.L2_Replacement_clean::total     22924320                       (Unspecified)
system.caches.L2Cache_Controller.Mem_Data |     2903004     12.50%     12.50% |     2903318     12.50%     25.00% |     2902627     12.50%     37.50% |     2902734     12.50%     50.00% |     2903305     12.50%     62.50% |     2902841     12.50%     75.00% |     2902799     12.50%     87.50% |     2902489     12.50%    100.00% (Unspecified)
system.caches.L2Cache_Controller.Mem_Data::total     23223117                       (Unspecified)
system.caches.L2Cache_Controller.Mem_Ack |     2886620     12.50%     12.50% |     2886934     12.50%     25.00% |     2886243     12.50%     37.50% |     2886350     12.50%     50.00% |     2886921     12.50%     62.50% |     2886457     12.50%     75.00% |     2886416     12.50%     87.50% |     2886105     12.50%    100.00% (Unspecified)
system.caches.L2Cache_Controller.Mem_Ack::total     23092046                       (Unspecified)
system.caches.L2Cache_Controller.WB_Data |        3617     20.12%     20.12% |        1626      9.04%     29.17% |         673      3.74%     32.91% |         691      3.84%     36.75% |         780      4.34%     41.09% |         774      4.31%     45.40% |        9040     50.29%     95.68% |         776      4.32%    100.00% (Unspecified)
system.caches.L2Cache_Controller.WB_Data::total        17977                       (Unspecified)
system.caches.L2Cache_Controller.WB_Data_clean |        8756     12.43%     12.43% |        9448     13.41%     25.83% |        8766     12.44%     38.27% |        8742     12.41%     50.68% |        8695     12.34%     63.02% |        8656     12.28%     75.30% |        8686     12.33%     87.63% |        8719     12.37%    100.00% (Unspecified)
system.caches.L2Cache_Controller.WB_Data_clean::total        70468                       (Unspecified)
system.caches.L2Cache_Controller.Ack     |        2013     13.73%     13.73% |        2191     14.94%     28.66% |        1539     10.49%     39.16% |        1740     11.86%     51.02% |        2125     14.49%     65.51% |        1898     12.94%     78.45% |        1817     12.39%     90.84% |        1343      9.16%    100.00% (Unspecified)
system.caches.L2Cache_Controller.Ack::total        14666                       (Unspecified)
system.caches.L2Cache_Controller.Ack_all |        2723     12.84%     12.84% |        3015     14.22%     27.06% |        2307     10.88%     37.94% |        2523     11.90%     49.84% |        3096     14.60%     64.44% |        2620     12.36%     76.79% |        2631     12.41%     89.20% |        2290     10.80%    100.00% (Unspecified)
system.caches.L2Cache_Controller.Ack_all::total        21205                       (Unspecified)
system.caches.L2Cache_Controller.Unblock |       12373     13.99%     13.99% |       11074     12.52%     26.51% |        9439     10.67%     37.18% |        9433     10.67%     47.85% |        9475     10.71%     58.56% |        9429     10.66%     69.22% |       17726     20.04%     89.26% |        9495     10.74%    100.00% (Unspecified)
system.caches.L2Cache_Controller.Unblock::total        88444                       (Unspecified)
system.caches.L2Cache_Controller.Exclusive_Unblock |     2996633     12.54%     12.54% |     2995302     12.53%     25.07% |     2965801     12.41%     37.47% |     2981250     12.47%     49.95% |     2986978     12.50%     62.44% |     2991944     12.52%     74.96% |     2998145     12.54%     87.50% |     2987500     12.50%    100.00% (Unspecified)
system.caches.L2Cache_Controller.Exclusive_Unblock::total     23903553                       (Unspecified)
system.caches.L2Cache_Controller.NP.L1_GET_INSTR |        2677     12.78%     12.78% |        2976     14.21%     26.99% |        2284     10.90%     37.89% |        2489     11.88%     49.77% |        3074     14.67%     64.45% |        2597     12.40%     76.84% |        2597     12.40%     89.24% |        2254     10.76%    100.00% (Unspecified)
system.caches.L2Cache_Controller.NP.L1_GET_INSTR::total        20948                       (Unspecified)
system.caches.L2Cache_Controller.NP.L1_GETS |     2892320     12.50%     12.50% |     2892348     12.50%     25.00% |     2892327     12.50%     37.50% |     2892270     12.50%     50.00% |     2892256     12.50%     62.50% |     2892266     12.50%     75.00% |     2892222     12.50%     87.50% |     2892258     12.50%    100.00% (Unspecified)
system.caches.L2Cache_Controller.NP.L1_GETS::total     23138267                       (Unspecified)
system.caches.L2Cache_Controller.NP.L1_GETX |        8007     12.53%     12.53% |        7994     12.51%     25.04% |        8016     12.54%     37.58% |        7975     12.48%     50.06% |        7975     12.48%     62.54% |        7978     12.48%     75.03% |        7981     12.49%     87.52% |        7977     12.48%    100.00% (Unspecified)
system.caches.L2Cache_Controller.NP.L1_GETX::total        63903                       (Unspecified)
system.caches.L2Cache_Controller.SS.L1_GET_INSTR |        8773      7.88%      7.88% |       17030     15.29%     23.17% |       14724     13.22%     36.40% |        3014      2.71%     39.10% |        9387      8.43%     47.53% |       14921     13.40%     60.93% |       19153     17.20%     78.13% |       24349     21.87%    100.00% (Unspecified)
system.caches.L2Cache_Controller.SS.L1_GET_INSTR::total       111351                       (Unspecified)
system.caches.L2Cache_Controller.SS.L1_GETS |     9966303     12.55%     12.55% |     9945443     12.52%     25.07% |     9927584     12.50%     37.57% |     9908838     12.48%     50.05% |     9958423     12.54%     62.59% |     9918217     12.49%     75.07% |     9883519     12.44%     87.52% |     9912228     12.48%    100.00% (Unspecified)
system.caches.L2Cache_Controller.SS.L1_GETS::total     79420555                       (Unspecified)
system.caches.L2Cache_Controller.SS.L1_GETX |        2879     58.65%     58.65% |           0      0.00%     58.65% |           1      0.02%     58.67% |           0      0.00%     58.67% |          32      0.65%     59.32% |           5      0.10%     59.42% |        1990     40.54%     99.96% |           2      0.04%    100.00% (Unspecified)
system.caches.L2Cache_Controller.SS.L1_GETX::total         4909                       (Unspecified)
system.caches.L2Cache_Controller.SS.L1_UPGRADE |        7071     11.00%     11.00% |        8658     13.47%     24.47% |        7037     10.95%     35.42% |        7030     10.94%     46.36% |        7041     10.95%     57.31% |        7032     10.94%     68.25% |       13330     20.74%     88.99% |        7077     11.01%    100.00% (Unspecified)
system.caches.L2Cache_Controller.SS.L1_UPGRADE::total        64276                       (Unspecified)
system.caches.L2Cache_Controller.SS.L1_PUTX |           1     50.00%     50.00% |           0      0.00%     50.00% |           0      0.00%     50.00% |           1     50.00%    100.00% |           0      0.00%    100.00% |           0      0.00%    100.00% |           0      0.00%    100.00% |           0      0.00%    100.00% (Unspecified)
system.caches.L2Cache_Controller.SS.L1_PUTX::total            2                       (Unspecified)
system.caches.L2Cache_Controller.SS.L2_Replacement |          18     12.95%     12.95% |          19     13.67%     26.62% |          10      7.19%     33.81% |           9      6.47%     40.29% |          18     12.95%     53.24% |          15     10.79%     64.03% |          24     17.27%     81.29% |          26     18.71%    100.00% (Unspecified)
system.caches.L2Cache_Controller.SS.L2_Replacement::total          139                       (Unspecified)
system.caches.L2Cache_Controller.SS.L2_Replacement_clean |        2702     12.83%     12.83% |        2992     14.21%     27.04% |        2296     10.90%     37.95% |        2513     11.93%     49.88% |        3078     14.62%     64.50% |        2605     12.37%     76.87% |        2607     12.38%     89.25% |        2263     10.75%    100.00% (Unspecified)
system.caches.L2Cache_Controller.SS.L2_Replacement_clean::total        21056                       (Unspecified)
system.caches.L2Cache_Controller.M.L1_GETS |       63083     12.52%     12.52% |       74187     14.72%     27.24% |       52240     10.37%     37.61% |       61841     12.27%     49.88% |       67536     13.40%     63.28% |       56541     11.22%     74.50% |       66453     13.19%     87.69% |       62019     12.31%    100.00% (Unspecified)
system.caches.L2Cache_Controller.M.L1_GETS::total       503900                       (Unspecified)
system.caches.L2Cache_Controller.M.L1_GETX |       22514     17.65%     17.65% |       12118      9.50%     27.15% |        6181      4.85%     32.00% |       12135      9.51%     41.51% |       12138      9.52%     51.03% |       28127     22.05%     73.08% |       16162     12.67%     85.76% |       18166     14.24%    100.00% (Unspecified)
system.caches.L2Cache_Controller.M.L1_GETX::total       127541                       (Unspecified)
system.caches.L2Cache_Controller.M.L2_Replacement |       20948     12.50%     12.50% |       20954     12.50%     25.00% |       21037     12.55%     37.56% |       20949     12.50%     50.06% |       20930     12.49%     62.55% |       20930     12.49%     75.03% |       20919     12.48%     87.52% |       20919     12.48%    100.00% (Unspecified)
system.caches.L2Cache_Controller.M.L2_Replacement::total       167586                       (Unspecified)
system.caches.L2Cache_Controller.M.L2_Replacement_clean |     2862949     12.50%     12.50% |     2862965     12.50%     25.00% |     2862899     12.50%     37.50% |     2862878     12.50%     50.00% |     2862895     12.50%     62.50% |     2862906     12.50%     75.00% |     2862866     12.50%     87.50% |     2862896     12.50%    100.00% (Unspecified)
system.caches.L2Cache_Controller.M.L2_Replacement_clean::total     22903254                       (Unspecified)
system.caches.L2Cache_Controller.MT.L1_GETS |       12373     13.99%     13.99% |       11074     12.52%     26.51% |        9439     10.67%     37.18% |        9433     10.67%     47.85% |        9475     10.71%     58.56% |        9429     10.66%     69.22% |       17726     20.04%     89.26% |        9495     10.74%    100.00% (Unspecified)
system.caches.L2Cache_Controller.MT.L1_GETS::total        88444                       (Unspecified)
system.caches.L2Cache_Controller.MT.L1_GETX |         770     96.49%     96.49% |           6      0.75%     97.24% |           3      0.38%     97.62% |           1      0.13%     97.74% |           3      0.38%     98.12% |           0      0.00%     98.12% |          12      1.50%     99.62% |           3      0.38%    100.00% (Unspecified)
system.caches.L2Cache_Controller.MT.L1_GETX::total          798                       (Unspecified)
system.caches.L2Cache_Controller.MT.L1_PUTX |     2983072     12.53%     12.53% |     2983811     12.53%     25.06% |     2955957     12.41%     37.47% |     2971402     12.48%     49.95% |     2977078     12.50%     62.46% |     2982102     12.52%     74.98% |     2979982     12.52%     87.49% |     2977586     12.51%    100.00% (Unspecified)
system.caches.L2Cache_Controller.MT.L1_PUTX::total     23810990                       (Unspecified)
system.caches.L2Cache_Controller.MT.L2_Replacement |           0      0.00%      0.00% |           0      0.00%      0.00% |           0      0.00%      0.00% |           0      0.00%      0.00% |           0      0.00%      0.00% |           1    100.00%    100.00% |           0      0.00%    100.00% |           0      0.00%    100.00% (Unspecified)
system.caches.L2Cache_Controller.MT.L2_Replacement::total            1                       (Unspecified)
system.caches.L2Cache_Controller.MT.L2_Replacement_clean |           3     30.00%     30.00% |           4     40.00%     70.00% |           1     10.00%     80.00% |           1     10.00%     90.00% |           0      0.00%     90.00% |           0      0.00%     90.00% |           0      0.00%     90.00% |           1     10.00%    100.00% (Unspecified)
system.caches.L2Cache_Controller.MT.L2_Replacement_clean::total           10                       (Unspecified)
system.caches.L2Cache_Controller.M_I.Mem_Ack |     2886620     12.50%     12.50% |     2886934     12.50%     25.00% |     2886243     12.50%     37.50% |     2886350     12.50%     50.00% |     2886921     12.50%     62.50% |     2886457     12.50%     75.00% |     2886416     12.50%     87.50% |     2886105     12.50%    100.00% (Unspecified)
system.caches.L2Cache_Controller.M_I.Mem_Ack::total     23092046                       (Unspecified)
system.caches.L2Cache_Controller.MT_I.WB_Data |           0      0.00%      0.00% |           0      0.00%      0.00% |           0      0.00%      0.00% |           0      0.00%      0.00% |           0      0.00%      0.00% |           1    100.00%    100.00% |           0      0.00%    100.00% |           0      0.00%    100.00% (Unspecified)
system.caches.L2Cache_Controller.MT_I.WB_Data::total            1                       (Unspecified)
system.caches.L2Cache_Controller.MCT_I.Ack_all |           3     30.00%     30.00% |           4     40.00%     70.00% |           1     10.00%     80.00% |           1     10.00%     90.00% |           0      0.00%     90.00% |           0      0.00%     90.00% |           0      0.00%     90.00% |           1     10.00%    100.00% (Unspecified)
system.caches.L2Cache_Controller.MCT_I.Ack_all::total           10                       (Unspecified)
system.caches.L2Cache_Controller.I_I.Ack |        1995     13.73%     13.73% |        2172     14.95%     28.68% |        1529     10.53%     39.21% |        1731     11.92%     51.13% |        2107     14.50%     65.63% |        1883     12.96%     78.59% |        1793     12.34%     90.93% |        1317      9.07%    100.00% (Unspecified)
system.caches.L2Cache_Controller.I_I.Ack::total        14527                       (Unspecified)
system.caches.L2Cache_Controller.I_I.Ack_all |        2702     12.83%     12.83% |        2992     14.21%     27.04% |        2296     10.90%     37.95% |        2513     11.93%     49.88% |        3078     14.62%     64.50% |        2605     12.37%     76.87% |        2607     12.38%     89.25% |        2263     10.75%    100.00% (Unspecified)
system.caches.L2Cache_Controller.I_I.Ack_all::total        21056                       (Unspecified)
system.caches.L2Cache_Controller.S_I.Ack |          18     12.95%     12.95% |          19     13.67%     26.62% |          10      7.19%     33.81% |           9      6.47%     40.29% |          18     12.95%     53.24% |          15     10.79%     64.03% |          24     17.27%     81.29% |          26     18.71%    100.00% (Unspecified)
system.caches.L2Cache_Controller.S_I.Ack::total          139                       (Unspecified)
system.caches.L2Cache_Controller.S_I.Ack_all |          18     12.95%     12.95% |          19     13.67%     26.62% |          10      7.19%     33.81% |           9      6.47%     40.29% |          18     12.95%     53.24% |          15     10.79%     64.03% |          24     17.27%     81.29% |          26     18.71%    100.00% (Unspecified)
system.caches.L2Cache_Controller.S_I.Ack_all::total          139                       (Unspecified)
system.caches.L2Cache_Controller.ISS.L1_GETS |          11     27.50%     27.50% |           9     22.50%     50.00% |           4     10.00%     60.00% |           2      5.00%     65.00% |           3      7.50%     72.50% |           5     12.50%     85.00% |           4     10.00%     95.00% |           2      5.00%    100.00% (Unspecified)
system.caches.L2Cache_Controller.ISS.L1_GETS::total           40                       (Unspecified)
system.caches.L2Cache_Controller.ISS.Mem_Data |     2892309     12.50%     12.50% |     2892339     12.50%     25.00% |     2892323     12.50%     37.50% |     2892268     12.50%     50.00% |     2892253     12.50%     62.50% |     2892261     12.50%     75.00% |     2892217     12.50%     87.50% |     2892256     12.50%    100.00% (Unspecified)
system.caches.L2Cache_Controller.ISS.Mem_Data::total     23138226                       (Unspecified)
system.caches.L2Cache_Controller.IS.L1_GET_INSTR |         776     18.49%     18.49% |         689     16.42%     34.91% |         402      9.58%     44.49% |         397      9.46%     53.96% |         540     12.87%     66.83% |         509     12.13%     78.96% |         470     11.20%     90.16% |         413      9.84%    100.00% (Unspecified)
system.caches.L2Cache_Controller.IS.L1_GET_INSTR::total         4196                       (Unspecified)
system.caches.L2Cache_Controller.IS.Mem_Data |        2688     12.81%     12.81% |        2985     14.22%     27.03% |        2288     10.90%     37.93% |        2491     11.87%     49.80% |        3077     14.66%     64.46% |        2602     12.40%     76.86% |        2601     12.39%     89.25% |        2256     10.75%    100.00% (Unspecified)
system.caches.L2Cache_Controller.IS.Mem_Data::total        20988                       (Unspecified)
system.caches.L2Cache_Controller.IM.L1_GETX |           0      0.00%      0.00% |           1    100.00%    100.00% |           0      0.00%    100.00% |           0      0.00%    100.00% |           0      0.00%    100.00% |           0      0.00%    100.00% |           0      0.00%    100.00% |           0      0.00%    100.00% (Unspecified)
system.caches.L2Cache_Controller.IM.L1_GETX::total            1                       (Unspecified)
system.caches.L2Cache_Controller.IM.Mem_Data |        8007     12.53%     12.53% |        7994     12.51%     25.04% |        8016     12.54%     37.58% |        7975     12.48%     50.06% |        7975     12.48%     62.54% |        7978     12.48%     75.03% |        7981     12.49%     87.52% |        7977     12.48%    100.00% (Unspecified)
system.caches.L2Cache_Controller.IM.Mem_Data::total        63903                       (Unspecified)
system.caches.L2Cache_Controller.SS_MB.L1_GETS |           1      0.02%      0.02% |           0      0.00%      0.02% |           0      0.00%      0.02% |           0      0.00%      0.02% |           0      0.00%      0.02% |           0      0.00%      0.02% |        4806     99.85%     99.88% |           6      0.12%    100.00% (Unspecified)
system.caches.L2Cache_Controller.SS_MB.L1_GETS::total         4813                       (Unspecified)
system.caches.L2Cache_Controller.SS_MB.Exclusive_Unblock |        9950     14.38%     14.38% |        8658     12.51%     26.90% |        7038     10.17%     37.07% |        7030     10.16%     47.23% |        7073     10.22%     57.45% |        7037     10.17%     67.62% |       15320     22.14%     89.77% |        7079     10.23%    100.00% (Unspecified)
system.caches.L2Cache_Controller.SS_MB.Exclusive_Unblock::total        69185                       (Unspecified)
system.caches.L2Cache_Controller.MT_MB.L1_GETS |           0      0.00%      0.00% |           4     80.00%     80.00% |           0      0.00%     80.00% |           0      0.00%     80.00% |           0      0.00%     80.00% |           1     20.00%    100.00% |           0      0.00%    100.00% |           0      0.00%    100.00% (Unspecified)
system.caches.L2Cache_Controller.MT_MB.L1_GETS::total            5                       (Unspecified)
system.caches.L2Cache_Controller.MT_MB.Exclusive_Unblock |     2986683     12.53%     12.53% |     2986644     12.53%     25.06% |     2958763     12.41%     37.48% |     2974220     12.48%     49.95% |     2979905     12.50%     62.46% |     2984907     12.52%     74.98% |     2982825     12.51%     87.50% |     2980421     12.50%    100.00% (Unspecified)
system.caches.L2Cache_Controller.MT_MB.Exclusive_Unblock::total     23834368                       (Unspecified)
system.caches.L2Cache_Controller.MT_IIB.L1_PUTX |           1     50.00%     50.00% |           0      0.00%     50.00% |           0      0.00%     50.00% |           1     50.00%    100.00% |           0      0.00%    100.00% |           0      0.00%    100.00% |           0      0.00%    100.00% |           0      0.00%    100.00% (Unspecified)
system.caches.L2Cache_Controller.MT_IIB.L1_PUTX::total            2                       (Unspecified)
system.caches.L2Cache_Controller.MT_IIB.WB_Data |        3617     20.12%     20.12% |        1626      9.05%     29.17% |         673      3.74%     32.91% |         691      3.84%     36.75% |         780      4.34%     41.09% |         773      4.30%     45.39% |        9040     50.29%     95.68% |         776      4.32%    100.00% (Unspecified)
system.caches.L2Cache_Controller.MT_IIB.WB_Data::total        17976                       (Unspecified)
system.caches.L2Cache_Controller.MT_IIB.WB_Data_clean |        8756     12.43%     12.43% |        9448     13.41%     25.83% |        8766     12.44%     38.27% |        8742     12.41%     50.68% |        8695     12.34%     63.02% |        8656     12.28%     75.30% |        8686     12.33%     87.63% |        8719     12.37%    100.00% (Unspecified)
system.caches.L2Cache_Controller.MT_IIB.WB_Data_clean::total        70468                       (Unspecified)
system.caches.L2Cache_Controller.MT_SB.L1_UPGRADE |           0      0.00%      0.00% |           0      0.00%      0.00% |           0      0.00%      0.00% |           0      0.00%      0.00% |           0      0.00%      0.00% |           0      0.00%      0.00% |        4056    100.00%    100.00% |           0      0.00%    100.00% (Unspecified)
system.caches.L2Cache_Controller.MT_SB.L1_UPGRADE::total         4056                       (Unspecified)
system.caches.L2Cache_Controller.MT_SB.Unblock |       12373     13.99%     13.99% |       11074     12.52%     26.51% |        9439     10.67%     37.18% |        9433     10.67%     47.85% |        9475     10.71%     58.56% |        9429     10.66%     69.22% |       17726     20.04%     89.26% |        9495     10.74%    100.00% (Unspecified)
system.caches.L2Cache_Controller.MT_SB.Unblock::total        88444                       (Unspecified)
system.caches.RequestType.LD.latency_hist_seqr::bucket_size          512                       (Unspecified)
system.caches.RequestType.LD.latency_hist_seqr::max_bucket         5119                       (Unspecified)
system.caches.RequestType.LD.latency_hist_seqr::samples    375881657                       (Unspecified)
system.caches.RequestType.LD.latency_hist_seqr::mean    34.656707                       (Unspecified)
system.caches.RequestType.LD.latency_hist_seqr::gmean     2.527404                       (Unspecified)
system.caches.RequestType.LD.latency_hist_seqr::stdev   131.612830                       (Unspecified)
system.caches.RequestType.LD.latency_hist_seqr |   372221931     99.03%     99.03% |     3147521      0.84%     99.86% |       38534      0.01%     99.87% |      454953      0.12%    100.00% |       18669      0.00%    100.00% |          49      0.00%    100.00% |           0      0.00%    100.00% |           0      0.00%    100.00% |           0      0.00%    100.00% |           0      0.00%    100.00% (Unspecified)
system.caches.RequestType.LD.latency_hist_seqr::total    375881657                       (Unspecified)
system.caches.RequestType.LD.hit_latency_hist_seqr::bucket_size            1                       (Unspecified)
system.caches.RequestType.LD.hit_latency_hist_seqr::max_bucket            9                       (Unspecified)
system.caches.RequestType.LD.hit_latency_hist_seqr::samples    272730453                       (Unspecified)
system.caches.RequestType.LD.hit_latency_hist_seqr::mean            1                       (Unspecified)
system.caches.RequestType.LD.hit_latency_hist_seqr::gmean            1                       (Unspecified)
system.caches.RequestType.LD.hit_latency_hist_seqr |           0      0.00%      0.00% |   272730453    100.00%    100.00% |           0      0.00%    100.00% |           0      0.00%    100.00% |           0      0.00%    100.00% |           0      0.00%    100.00% |           0      0.00%    100.00% |           0      0.00%    100.00% |           0      0.00%    100.00% |           0      0.00%    100.00% (Unspecified)
system.caches.RequestType.LD.hit_latency_hist_seqr::total    272730453                       (Unspecified)
system.caches.RequestType.LD.miss_latency_hist_seqr::bucket_size          512                       (Unspecified)
system.caches.RequestType.LD.miss_latency_hist_seqr::max_bucket         5119                       (Unspecified)
system.caches.RequestType.LD.miss_latency_hist_seqr::samples    103151204                       (Unspecified)
system.caches.RequestType.LD.miss_latency_hist_seqr::mean   123.644606                       (Unspecified)
system.caches.RequestType.LD.miss_latency_hist_seqr::gmean    29.331958                       (Unspecified)
system.caches.RequestType.LD.miss_latency_hist_seqr::stdev   228.488577                       (Unspecified)
system.caches.RequestType.LD.miss_latency_hist_seqr |    99491478     96.45%     96.45% |     3147521      3.05%     99.50% |       38534      0.04%     99.54% |      454953      0.44%     99.98% |       18669      0.02%    100.00% |          49      0.00%    100.00% |           0      0.00%    100.00% |           0      0.00%    100.00% |           0      0.00%    100.00% |           0      0.00%    100.00% (Unspecified)
system.caches.RequestType.LD.miss_latency_hist_seqr::total    103151204                       (Unspecified)
system.caches.RequestType.ST.latency_hist_seqr::bucket_size          256                       (Unspecified)
system.caches.RequestType.ST.latency_hist_seqr::max_bucket         2559                       (Unspecified)
system.caches.RequestType.ST.latency_hist_seqr::samples      3894211                       (Unspecified)
system.caches.RequestType.ST.latency_hist_seqr::mean    11.129751                       (Unspecified)
[...]
system.timingCpu0.exec_context.thread_0.statExecutedInstType::SimdSha1Hash2            0      0.00%     77.03% # Class of executed instruction. (Count)
system.timingCpu0.exec_context.thread_0.statExecutedInstType::SimdSha256Hash            0      0.00%     77.03% # Class of executed instruction. (Count)
system.timingCpu0.exec_context.thread_0.statExecutedInstType::SimdSha256Hash2            0      0.00%     77.03% # Class of executed instruction. (Count)
system.timingCpu0.exec_context.thread_0.statExecutedInstType::SimdShaSigma2            0      0.00%     77.03% # Class of executed instruction. (Count)
system.timingCpu0.exec_context.thread_0.statExecutedInstType::SimdShaSigma3            0      0.00%     77.03% # Class of executed instruction. (Count)
system.timingCpu0.exec_context.thread_0.statExecutedInstType::SimdPredAlu            0      0.00%     77.03% # Class of executed instruction. (Count)
system.timingCpu0.exec_context.thread_0.statExecutedInstType::MemRead     63776922      7.71%     84.74% # Class of executed instruction. (Count)
system.timingCpu0.exec_context.thread_0.statExecutedInstType::MemWrite      1098799      0.13%     84.87% # Class of executed instruction. (Count)
system.timingCpu0.exec_context.thread_0.statExecutedInstType::FloatMemRead    124163596     15.02%     99.89% # Class of executed instruction. (Count)
system.timingCpu0.exec_context.thread_0.statExecutedInstType::FloatMemWrite       929332      0.11%    100.00% # Class of executed instruction. (Count)
system.timingCpu0.exec_context.thread_0.statExecutedInstType::IprAccess            0      0.00%    100.00% # Class of executed instruction. (Count)
system.timingCpu0.exec_context.thread_0.statExecutedInstType::InstPrefetch            0      0.00%    100.00% # Class of executed instruction. (Count)
system.timingCpu0.exec_context.thread_0.statExecutedInstType::total    826889628                       # Class of executed instruction. (Count)
system.timingCpu0.mmu.dtb.rdAccesses        187990803                       # TLB accesses on read requests (Count)
system.timingCpu0.mmu.dtb.wrAccesses          2034646                       # TLB accesses on write requests (Count)
system.timingCpu0.mmu.dtb.rdMisses              50311                       # TLB misses on read requests (Count)
system.timingCpu0.mmu.dtb.wrMisses               6538                       # TLB misses on write requests (Count)
system.timingCpu0.mmu.dtb.walker.power_state.pwrStateResidencyTicks::UNDEFINED 25844651983500                       # Cumulative time (in ticks) in various power states (Tick)
system.timingCpu0.mmu.itb.rdAccesses                0                       # TLB accesses on read requests (Count)
system.timingCpu0.mmu.itb.wrAccesses        633811164                       # TLB accesses on write requests (Count)
system.timingCpu0.mmu.itb.rdMisses                  0                       # TLB misses on read requests (Count)
system.timingCpu0.mmu.itb.wrMisses               2050                       # TLB misses on write requests (Count)
system.timingCpu0.mmu.itb.walker.power_state.pwrStateResidencyTicks::UNDEFINED 25844651983500                       # Cumulative time (in ticks) in various power states (Tick)
system.timingCpu0.power_state.numTransitions            4                       # Number of power state transitions (Count)
system.timingCpu0.power_state.ticksClkGated::samples            2                       # Distribution of time spent in the clock gated state (Tick)
system.timingCpu0.power_state.ticksClkGated::mean    211890625                       # Distribution of time spent in the clock gated state (Tick)
system.timingCpu0.power_state.ticksClkGated::stdev 118937305.139226                       # Distribution of time spent in the clock gated state (Tick)
system.timingCpu0.power_state.ticksClkGated::1000-5e+10            2    100.00%    100.00% # Distribution of time spent in the clock gated state (Tick)
system.timingCpu0.power_state.ticksClkGated::min_value    127789250                       # Distribution of time spent in the clock gated state (Tick)
system.timingCpu0.power_state.ticksClkGated::max_value    295992000                       # Distribution of time spent in the clock gated state (Tick)
system.timingCpu0.power_state.ticksClkGated::total            2                       # Distribution of time spent in the clock gated state (Tick)
system.timingCpu0.power_state.pwrStateResidencyTicks::ON 824524194250                       # Cumulative time (in ticks) in various power states (Tick)
system.timingCpu0.power_state.pwrStateResidencyTicks::CLK_GATED    423781250                       # Cumulative time (in ticks) in various power states (Tick)
system.timingCpu0.power_state.pwrStateResidencyTicks::OFF 25019704008000                       # Cumulative time (in ticks) in various power states (Tick)
system.timingCpu0.thread_0.numInsts                 0                       # Number of Instructions committed (Count)
system.timingCpu0.thread_0.numOps                   0                       # Number of Ops committed (Count)
system.timingCpu0.thread_0.numMemRefs               0                       # Number of Memory References (Count)
system.timingCpu1.numCycles                7999999974                       # Number of cpu cycles simulated (Cycle)
system.timingCpu1.numWorkItemsStarted               0                       # Number of work items this cpu started (Count)
system.timingCpu1.numWorkItemsCompleted             0                       # Number of work items this cpu completed (Count)
system.timingCpu1.exec_context.thread_0.numInsts    444343202                       # Number of instructions committed (Count)
system.timingCpu1.exec_context.thread_0.numOps    824553056                       # Number of ops (including micro ops) committed (Count)
system.timingCpu1.exec_context.thread_0.numIntAluAccesses    636506259                       # Number of integer alu accesses (Count)
system.timingCpu1.exec_context.thread_0.numFpAluAccesses    312606086                       # Number of float alu accesses (Count)
system.timingCpu1.exec_context.thread_0.numVecAluAccesses            0                       # Number of vector alu accesses (Count)
system.timingCpu1.exec_context.thread_0.numCallsReturns       377129                       # Number of times a function call or return occured (Count)
system.timingCpu1.exec_context.thread_0.numCondCtrlInsts     63221653                       # Number of instructions that are conditional controls (Count)
system.timingCpu1.exec_context.thread_0.numIntInsts    636506259                       # Number of integer instructions (Count)
system.timingCpu1.exec_context.thread_0.numFpInsts    312606086                       # Number of float instructions (Count)
system.timingCpu1.exec_context.thread_0.numVecInsts            0                       # Number of vector instructions (Count)
system.timingCpu1.exec_context.thread_0.numIntRegReads    828478196                       # Number of times the integer registers were read (Count)
system.timingCpu1.exec_context.thread_0.numIntRegWrites    383556726                       # Number of times the integer registers were written (Count)
system.timingCpu1.exec_context.thread_0.numFpRegReads    376211817                       # Number of times the floating registers were read (Count)
system.timingCpu1.exec_context.thread_0.numFpRegWrites    311663748                       # Number of times the floating registers were written (Count)
system.timingCpu1.exec_context.thread_0.numVecRegReads            0                       # Number of times the vector registers were read (Count)
system.timingCpu1.exec_context.thread_0.numVecRegWrites            0                       # Number of times the vector registers were written (Count)
system.timingCpu1.exec_context.thread_0.numVecPredRegReads            0                       # Number of times the predicate registers were read (Count)
system.timingCpu1.exec_context.thread_0.numVecPredRegWrites            0                       # Number of times the predicate registers were written (Count)
system.timingCpu1.exec_context.thread_0.numCCRegReads    318426253                       # Number of times the CC registers were read (Count)
system.timingCpu1.exec_context.thread_0.numCCRegWrites    254556711                       # Number of times the CC registers were written (Count)
system.timingCpu1.exec_context.thread_0.numMiscRegReads    317278486                       # Number of times the Misc registers were read (Count)
system.timingCpu1.exec_context.thread_0.numMiscRegWrites        71638                       # Number of times the Misc registers were written (Count)
system.timingCpu1.exec_context.thread_0.numMemRefs    189633140                       # Number of memory refs (Count)
system.timingCpu1.exec_context.thread_0.numLoadInsts    187728367                       # Number of load instructions (Count)
system.timingCpu1.exec_context.thread_0.numStoreInsts      1904773                       # Number of store instructions (Count)
system.timingCpu1.exec_context.thread_0.numIdleCycles            0                       # Number of idle cycles (Cycle)
system.timingCpu1.exec_context.thread_0.numBusyCycles   7999999974                       # Number of busy cycles (Cycle)
system.timingCpu1.exec_context.thread_0.notIdleFraction            1                       # Percentage of non-idle cycles (Ratio)
system.timingCpu1.exec_context.thread_0.idleFraction            0                       # Percentage of idle cycles (Ratio)
system.timingCpu1.exec_context.thread_0.numBranches     63797291                       # Number of branches fetched (Count)
system.timingCpu1.exec_context.thread_0.statExecutedInstType::No_OpClass       269270      0.03%      0.03% # Class of executed instruction. (Count)
system.timingCpu1.exec_context.thread_0.statExecutedInstType::IntAlu    447114198     54.23%     54.26% # Class of executed instruction. (Count)
system.timingCpu1.exec_context.thread_0.statExecutedInstType::IntMult        46312      0.01%     54.26% # Class of executed instruction. (Count)
system.timingCpu1.exec_context.thread_0.statExecutedInstType::IntDiv        87467      0.01%     54.27% # Class of executed instruction. (Count)
system.timingCpu1.exec_context.thread_0.statExecutedInstType::FloatAdd     62127234      7.53%     61.81% # Class of executed instruction. (Count)
system.timingCpu1.exec_context.thread_0.statExecutedInstType::FloatCmp            0      0.00%     61.81% # Class of executed instruction. (Count)
system.timingCpu1.exec_context.thread_0.statExecutedInstType::FloatCvt           80      0.00%     61.81% # Class of executed instruction. (Count)
system.timingCpu1.exec_context.thread_0.statExecutedInstType::FloatMult            0      0.00%     61.81% # Class of executed instruction. (Count)
system.timingCpu1.exec_context.thread_0.statExecutedInstType::FloatMultAcc            0      0.00%     61.81% # Class of executed instruction. (Count)
system.timingCpu1.exec_context.thread_0.statExecutedInstType::FloatDiv            0      0.00%     61.81% # Class of executed instruction. (Count)
system.timingCpu1.exec_context.thread_0.statExecutedInstType::FloatMisc            0      0.00%     61.81% # Class of executed instruction. (Count)
system.timingCpu1.exec_context.thread_0.statExecutedInstType::FloatSqrt            0      0.00%     61.81% # Class of executed instruction. (Count)
system.timingCpu1.exec_context.thread_0.statExecutedInstType::SimdAdd            0      0.00%     61.81% # Class of executed instruction. (Count)
system.timingCpu1.exec_context.thread_0.statExecutedInstType::SimdAddAcc            0      0.00%     61.81% # Class of executed instruction. (Count)
system.timingCpu1.exec_context.thread_0.statExecutedInstType::SimdAlu       529450      0.06%     61.87% # Class of executed instruction. (Count)
system.timingCpu1.exec_context.thread_0.statExecutedInstType::SimdCmp         1132      0.00%     61.87% # Class of executed instruction. (Count)
system.timingCpu1.exec_context.thread_0.statExecutedInstType::SimdCvt        15470      0.00%     61.87% # Class of executed instruction. (Count)
system.timingCpu1.exec_context.thread_0.statExecutedInstType::SimdMisc        31327      0.00%     61.88% # Class of executed instruction. (Count)
system.timingCpu1.exec_context.thread_0.statExecutedInstType::SimdMult            0      0.00%     61.88% # Class of executed instruction. (Count)
system.timingCpu1.exec_context.thread_0.statExecutedInstType::SimdMultAcc            0      0.00%     61.88% # Class of executed instruction. (Count)
system.timingCpu1.exec_context.thread_0.statExecutedInstType::SimdShift            0      0.00%     61.88% # Class of executed instruction. (Count)
system.timingCpu1.exec_context.thread_0.statExecutedInstType::SimdShiftAcc            0      0.00%     61.88% # Class of executed instruction. (Count)
system.timingCpu1.exec_context.thread_0.statExecutedInstType::SimdDiv            0      0.00%     61.88% # Class of executed instruction. (Count)
system.timingCpu1.exec_context.thread_0.statExecutedInstType::SimdSqrt            0      0.00%     61.88% # Class of executed instruction. (Count)
system.timingCpu1.exec_context.thread_0.statExecutedInstType::SimdFloatAdd     62349014      7.56%     69.44% # Class of executed instruction. (Count)
system.timingCpu1.exec_context.thread_0.statExecutedInstType::SimdFloatAlu            0      0.00%     69.44% # Class of executed instruction. (Count)
system.timingCpu1.exec_context.thread_0.statExecutedInstType::SimdFloatCmp            0      0.00%     69.44% # Class of executed instruction. (Count)
system.timingCpu1.exec_context.thread_0.statExecutedInstType::SimdFloatCvt            0      0.00%     69.44% # Class of executed instruction. (Count)
system.timingCpu1.exec_context.thread_0.statExecutedInstType::SimdFloatDiv            6      0.00%     69.44% # Class of executed instruction. (Count)
system.timingCpu1.exec_context.thread_0.statExecutedInstType::SimdFloatMisc            0      0.00%     69.44% # Class of executed instruction. (Count)
system.timingCpu1.exec_context.thread_0.statExecutedInstType::SimdFloatMult     62349008      7.56%     77.00% # Class of executed instruction. (Count)
system.timingCpu1.exec_context.thread_0.statExecutedInstType::SimdFloatMultAcc            0      0.00%     77.00% # Class of executed instruction. (Count)
system.timingCpu1.exec_context.thread_0.statExecutedInstType::SimdFloatSqrt            0      0.00%     77.00% # Class of executed instruction. (Count)
system.timingCpu1.exec_context.thread_0.statExecutedInstType::SimdReduceAdd            0      0.00%     77.00% # Class of executed instruction. (Count)
system.timingCpu1.exec_context.thread_0.statExecutedInstType::SimdReduceAlu            0      0.00%     77.00% # Class of executed instruction. (Count)
system.timingCpu1.exec_context.thread_0.statExecutedInstType::SimdReduceCmp            0      0.00%     77.00% # Class of executed instruction. (Count)
system.timingCpu1.exec_context.thread_0.statExecutedInstType::SimdFloatReduceAdd            0      0.00%     77.00% # Class of executed instruction. (Count)
system.timingCpu1.exec_context.thread_0.statExecutedInstType::SimdFloatReduceCmp            0      0.00%     77.00% # Class of executed instruction. (Count)
system.timingCpu1.exec_context.thread_0.statExecutedInstType::SimdAes            0      0.00%     77.00% # Class of executed instruction. (Count)
system.timingCpu1.exec_context.thread_0.statExecutedInstType::SimdAesMix            0      0.00%     77.00% # Class of executed instruction. (Count)
system.timingCpu1.exec_context.thread_0.statExecutedInstType::SimdSha1Hash            0      0.00%     77.00% # Class of executed instruction. (Count)
system.timingCpu1.exec_context.thread_0.statExecutedInstType::SimdSha1Hash2            0      0.00%     77.00% # Class of executed instruction. (Count)
system.timingCpu1.exec_context.thread_0.statExecutedInstType::SimdSha256Hash            0      0.00%     77.00% # Class of executed instruction. (Count)
system.timingCpu1.exec_context.thread_0.statExecutedInstType::SimdSha256Hash2            0      0.00%     77.00% # Class of executed instruction. (Count)
system.timingCpu1.exec_context.thread_0.statExecutedInstType::SimdShaSigma2            0      0.00%     77.00% # Class of executed instruction. (Count)
system.timingCpu1.exec_context.thread_0.statExecutedInstType::SimdShaSigma3            0      0.00%     77.00% # Class of executed instruction. (Count)
system.timingCpu1.exec_context.thread_0.statExecutedInstType::SimdPredAlu            0      0.00%     77.00% # Class of executed instruction. (Count)
system.timingCpu1.exec_context.thread_0.statExecutedInstType::MemRead     63467688      7.70%     84.70% # Class of executed instruction. (Count)
system.timingCpu1.exec_context.thread_0.statExecutedInstType::MemWrite       971589      0.12%     84.82% # Class of executed instruction. (Count)
system.timingCpu1.exec_context.thread_0.statExecutedInstType::FloatMemRead    124260679     15.07%     99.89% # Class of executed instruction. (Count)
system.timingCpu1.exec_context.thread_0.statExecutedInstType::FloatMemWrite       933184      0.11%    100.00% # Class of executed instruction. (Count)
system.timingCpu1.exec_context.thread_0.statExecutedInstType::IprAccess            0      0.00%    100.00% # Class of executed instruction. (Count)
system.timingCpu1.exec_context.thread_0.statExecutedInstType::InstPrefetch            0      0.00%    100.00% # Class of executed instruction. (Count)
system.timingCpu1.exec_context.thread_0.statExecutedInstType::total    824553108                       # Class of executed instruction. (Count)
system.timingCpu1.mmu.dtb.rdAccesses        187776510                       # TLB accesses on read requests (Count)
system.timingCpu1.mmu.dtb.wrAccesses          1909478                       # TLB accesses on write requests (Count)
system.timingCpu1.mmu.dtb.rdMisses              48423                       # TLB misses on read requests (Count)
system.timingCpu1.mmu.dtb.wrMisses               4801                       # TLB misses on write requests (Count)
system.timingCpu1.mmu.dtb.walker.power_state.pwrStateResidencyTicks::UNDEFINED 25844651983500                       # Cumulative time (in ticks) in various power states (Tick)
system.timingCpu1.mmu.itb.rdAccesses                0                       # TLB accesses on read requests (Count)
system.timingCpu1.mmu.itb.wrAccesses        633279368                       # TLB accesses on write requests (Count)
system.timingCpu1.mmu.itb.rdMisses                  0                       # TLB misses on read requests (Count)
system.timingCpu1.mmu.itb.wrMisses               3270                       # TLB misses on write requests (Count)
system.timingCpu1.mmu.itb.walker.power_state.pwrStateResidencyTicks::UNDEFINED 25844651983500                       # Cumulative time (in ticks) in various power states (Tick)
system.timingCpu1.power_state.pwrStateResidencyTicks::OFF 25844651983500                       # Cumulative time (in ticks) in various power states (Tick)
system.timingCpu1.thread_0.numInsts                 0                       # Number of Instructions committed (Count)
system.timingCpu1.thread_0.numOps                   0                       # Number of Ops committed (Count)
system.timingCpu1.thread_0.numMemRefs               0                       # Number of Memory References (Count)
system.workload.inst.arm                            0                       # number of arm instructions executed (Count)
system.workload.inst.quiesce                        0                       # number of quiesce instructions executed (Count)

---------- End Simulation Statistics   ----------
