
---------- Begin Simulation Statistics ----------
simSeconds                                   0.010000                       # Number of seconds simulated (Second)
simTicks                                  10000000000                       # Number of ticks simulated (Tick)
finalTick                                 10000000000                       # Number of ticks from beginning of simulation (restored from checkpoints and never reset) (Tick)
simFreq                                  1000000000000                       # The number of ticks per simulated second ((Tick/Second))
hostSeconds                                     64.05                       # Real time elapsed on the host (Second)
hostTickRate                                156118461                       # The number of ticks simulated per host second (ticks/s) ((Tick/Second))
hostMemory                                    4191764                       # Number of bytes of host memory used (Byte)
system.clk_domain.clock                           250                       # Clock period in ticks (Tick)
system.clk_domain.voltage_domain.voltage            1                       # Voltage in Volts (Volt)
system.far_mem_ctrl.avgPriority_writebacks::samples   2092397.00                       # Average QoS priority value for accepted requests (Count)
system.far_mem_ctrl.priorityMinLatency   0.000000017492                       # per QoS priority minimum request to response latency (Second)
system.far_mem_ctrl.priorityMaxLatency   0.000131256714                       # per QoS priority maximum request to response latency (Second)
system.far_mem_ctrl.numReadWriteTurnArounds            0                       # Number of turnarounds from READ to WRITE (Count)
system.far_mem_ctrl.numWriteReadTurnArounds            0                       # Number of turnarounds from WRITE to READ (Count)
system.far_mem_ctrl.numStayReadState          2252009                       # Number of times bus staying in READ state (Count)
system.far_mem_ctrl.numStayWriteState               0                       # Number of times bus staying in WRITE state (Count)
system.far_mem_ctrl.readReqs                  1172077                       # Number of read requests accepted (Count)
system.far_mem_ctrl.writeReqs                 1767437                       # Number of write requests accepted (Count)
system.far_mem_ctrl.readBursts                1172077                       # Number of controller read bursts, including those serviced by the write queue (Count)
system.far_mem_ctrl.writeBursts               1767437                       # Number of controller write bursts, including those merged in the write queue (Count)
system.far_mem_ctrl.servicedByWrQ                1439                       # Number of controller read bursts serviced by the write queue (Count)
system.far_mem_ctrl.mergedWrBursts             845678                       # Number of controller write bursts merged with an existing one (Count)
system.far_mem_ctrl.avgRdQLen                   31.60                       # Average read queue length when enqueuing ((Count/Tick))
system.far_mem_ctrl.avgWrQLen                   93.71                       # Average write queue length when enqueuing ((Count/Tick))
system.far_mem_ctrl.numRdRetry                 534095                       # Number of times read queue was full causing retry (Count)
system.far_mem_ctrl.numWrRetry                 735800                       # Number of times write queue was full causing retry (Count)
system.far_mem_ctrl.readPktSize::0                  0                       # Read request sizes (log2) (Count)
system.far_mem_ctrl.readPktSize::1                  0                       # Read request sizes (log2) (Count)
system.far_mem_ctrl.readPktSize::2                  0                       # Read request sizes (log2) (Count)
system.far_mem_ctrl.readPktSize::3                  0                       # Read request sizes (log2) (Count)
system.far_mem_ctrl.readPktSize::4                  0                       # Read request sizes (log2) (Count)
system.far_mem_ctrl.readPktSize::5                  0                       # Read request sizes (log2) (Count)
system.far_mem_ctrl.readPktSize::6            1172077                       # Read request sizes (log2) (Count)
system.far_mem_ctrl.writePktSize::0                 0                       # Write request sizes (log2) (Count)
system.far_mem_ctrl.writePktSize::1                 0                       # Write request sizes (log2) (Count)
system.far_mem_ctrl.writePktSize::2                 0                       # Write request sizes (log2) (Count)
system.far_mem_ctrl.writePktSize::3                 0                       # Write request sizes (log2) (Count)
system.far_mem_ctrl.writePktSize::4                 0                       # Write request sizes (log2) (Count)
system.far_mem_ctrl.writePktSize::5                 0                       # Write request sizes (log2) (Count)
system.far_mem_ctrl.writePktSize::6           1767437                       # Write request sizes (log2) (Count)
system.far_mem_ctrl.rdQLenPdf::0                 6395                       # What read queue length does an incoming req see (Count)
system.far_mem_ctrl.rdQLenPdf::1                 7575                       # What read queue length does an incoming req see (Count)
system.far_mem_ctrl.rdQLenPdf::2                 8789                       # What read queue length does an incoming req see (Count)
system.far_mem_ctrl.rdQLenPdf::3                10301                       # What read queue length does an incoming req see (Count)
system.far_mem_ctrl.rdQLenPdf::4                12541                       # What read queue length does an incoming req see (Count)
system.far_mem_ctrl.rdQLenPdf::5                15697                       # What read queue length does an incoming req see (Count)
system.far_mem_ctrl.rdQLenPdf::6                19689                       # What read queue length does an incoming req see (Count)
system.far_mem_ctrl.rdQLenPdf::7                23115                       # What read queue length does an incoming req see (Count)
system.far_mem_ctrl.rdQLenPdf::8                25121                       # What read queue length does an incoming req see (Count)
system.far_mem_ctrl.rdQLenPdf::9                25029                       # What read queue length does an incoming req see (Count)
system.far_mem_ctrl.rdQLenPdf::10               24396                       # What read queue length does an incoming req see (Count)
system.far_mem_ctrl.rdQLenPdf::11               22706                       # What read queue length does an incoming req see (Count)
system.far_mem_ctrl.rdQLenPdf::12               20914                       # What read queue length does an incoming req see (Count)
system.far_mem_ctrl.rdQLenPdf::13               19092                       # What read queue length does an incoming req see (Count)
system.far_mem_ctrl.rdQLenPdf::14               18146                       # What read queue length does an incoming req see (Count)
system.far_mem_ctrl.rdQLenPdf::15               17741                       # What read queue length does an incoming req see (Count)
system.far_mem_ctrl.rdQLenPdf::16               18067                       # What read queue length does an incoming req see (Count)
system.far_mem_ctrl.rdQLenPdf::17               19267                       # What read queue length does an incoming req see (Count)
system.far_mem_ctrl.rdQLenPdf::18               21020                       # What read queue length does an incoming req see (Count)
system.far_mem_ctrl.rdQLenPdf::19               22733                       # What read queue length does an incoming req see (Count)
system.far_mem_ctrl.rdQLenPdf::20               24885                       # What read queue length does an incoming req see (Count)
system.far_mem_ctrl.rdQLenPdf::21               27021                       # What read queue length does an incoming req see (Count)
system.far_mem_ctrl.rdQLenPdf::22               28323                       # What read queue length does an incoming req see (Count)
system.far_mem_ctrl.rdQLenPdf::23               29523                       # What read queue length does an incoming req see (Count)
system.far_mem_ctrl.rdQLenPdf::24               29917                       # What read queue length does an incoming req see (Count)
system.far_mem_ctrl.rdQLenPdf::25               30093                       # What read queue length does an incoming req see (Count)
system.far_mem_ctrl.rdQLenPdf::26               29612                       # What read queue length does an incoming req see (Count)
system.far_mem_ctrl.rdQLenPdf::27               28925                       # What read queue length does an incoming req see (Count)
system.far_mem_ctrl.rdQLenPdf::28               27676                       # What read queue length does an incoming req see (Count)
system.far_mem_ctrl.rdQLenPdf::29               25757                       # What read queue length does an incoming req see (Count)
system.far_mem_ctrl.rdQLenPdf::30               23783                       # What read queue length does an incoming req see (Count)
system.far_mem_ctrl.rdQLenPdf::31               22081                       # What read queue length does an incoming req see (Count)
system.far_mem_ctrl.rdQLenPdf::32               20461                       # What read queue length does an incoming req see (Count)
system.far_mem_ctrl.rdQLenPdf::33               18813                       # What read queue length does an incoming req see (Count)
system.far_mem_ctrl.rdQLenPdf::34               17228                       # What read queue length does an incoming req see (Count)
system.far_mem_ctrl.rdQLenPdf::35               15546                       # What read queue length does an incoming req see (Count)
system.far_mem_ctrl.rdQLenPdf::36               13268                       # What read queue length does an incoming req see (Count)
system.far_mem_ctrl.rdQLenPdf::37               11978                       # What read queue length does an incoming req see (Count)
system.far_mem_ctrl.rdQLenPdf::38               10882                       # What read queue length does an incoming req see (Count)
system.far_mem_ctrl.rdQLenPdf::39                9767                       # What read queue length does an incoming req see (Count)
system.far_mem_ctrl.rdQLenPdf::40                8668                       # What read queue length does an incoming req see (Count)
system.far_mem_ctrl.rdQLenPdf::41                7845                       # What read queue length does an incoming req see (Count)
system.far_mem_ctrl.rdQLenPdf::42                7114                       # What read queue length does an incoming req see (Count)
system.far_mem_ctrl.rdQLenPdf::43                6443                       # What read queue length does an incoming req see (Count)
system.far_mem_ctrl.rdQLenPdf::44                5928                       # What read queue length does an incoming req see (Count)
system.far_mem_ctrl.rdQLenPdf::45                5684                       # What read queue length does an incoming req see (Count)
system.far_mem_ctrl.rdQLenPdf::46                5312                       # What read queue length does an incoming req see (Count)
system.far_mem_ctrl.rdQLenPdf::47                4901                       # What read queue length does an incoming req see (Count)
system.far_mem_ctrl.rdQLenPdf::48                4574                       # What read queue length does an incoming req see (Count)
system.far_mem_ctrl.rdQLenPdf::49                4542                       # What read queue length does an incoming req see (Count)
system.far_mem_ctrl.rdQLenPdf::50                4483                       # What read queue length does an incoming req see (Count)
system.far_mem_ctrl.rdQLenPdf::51                4370                       # What read queue length does an incoming req see (Count)
system.far_mem_ctrl.rdQLenPdf::52                4157                       # What read queue length does an incoming req see (Count)
system.far_mem_ctrl.rdQLenPdf::53                4043                       # What read queue length does an incoming req see (Count)
system.far_mem_ctrl.rdQLenPdf::54                3923                       # What read queue length does an incoming req see (Count)
system.far_mem_ctrl.rdQLenPdf::55                3738                       # What read queue length does an incoming req see (Count)
system.far_mem_ctrl.rdQLenPdf::56                3637                       # What read queue length does an incoming req see (Count)
system.far_mem_ctrl.rdQLenPdf::57                3605                       # What read queue length does an incoming req see (Count)
system.far_mem_ctrl.rdQLenPdf::58                3523                       # What read queue length does an incoming req see (Count)
system.far_mem_ctrl.rdQLenPdf::59                3746                       # What read queue length does an incoming req see (Count)
system.far_mem_ctrl.rdQLenPdf::60                3609                       # What read queue length does an incoming req see (Count)
system.far_mem_ctrl.rdQLenPdf::61                3476                       # What read queue length does an incoming req see (Count)
system.far_mem_ctrl.rdQLenPdf::62                3315                       # What read queue length does an incoming req see (Count)
system.far_mem_ctrl.rdQLenPdf::63              256129                       # What read queue length does an incoming req see (Count)
system.far_mem_ctrl.wrQLenPdf::0                    1                       # What write queue length does an incoming req see (Count)
system.far_mem_ctrl.wrQLenPdf::1                    1                       # What write queue length does an incoming req see (Count)
system.far_mem_ctrl.wrQLenPdf::2                    1                       # What write queue length does an incoming req see (Count)
system.far_mem_ctrl.wrQLenPdf::3                    1                       # What write queue length does an incoming req see (Count)
system.far_mem_ctrl.wrQLenPdf::4                    1                       # What write queue length does an incoming req see (Count)
system.far_mem_ctrl.wrQLenPdf::5                    1                       # What write queue length does an incoming req see (Count)
system.far_mem_ctrl.wrQLenPdf::6                    1                       # What write queue length does an incoming req see (Count)
system.far_mem_ctrl.wrQLenPdf::7                    1                       # What write queue length does an incoming req see (Count)
system.far_mem_ctrl.wrQLenPdf::8                    1                       # What write queue length does an incoming req see (Count)
system.far_mem_ctrl.wrQLenPdf::9                    1                       # What write queue length does an incoming req see (Count)
system.far_mem_ctrl.wrQLenPdf::10                   1                       # What write queue length does an incoming req see (Count)
system.far_mem_ctrl.wrQLenPdf::11                   1                       # What write queue length does an incoming req see (Count)
system.far_mem_ctrl.wrQLenPdf::12                   1                       # What write queue length does an incoming req see (Count)
system.far_mem_ctrl.wrQLenPdf::13                   1                       # What write queue length does an incoming req see (Count)
system.far_mem_ctrl.wrQLenPdf::14                   1                       # What write queue length does an incoming req see (Count)
system.far_mem_ctrl.wrQLenPdf::15                   1                       # What write queue length does an incoming req see (Count)
system.far_mem_ctrl.wrQLenPdf::16                   1                       # What write queue length does an incoming req see (Count)
system.far_mem_ctrl.wrQLenPdf::17                   1                       # What write queue length does an incoming req see (Count)
system.far_mem_ctrl.wrQLenPdf::18                   1                       # What write queue length does an incoming req see (Count)
system.far_mem_ctrl.wrQLenPdf::19                   1                       # What write queue length does an incoming req see (Count)
system.far_mem_ctrl.wrQLenPdf::20                   1                       # What write queue length does an incoming req see (Count)
system.far_mem_ctrl.wrQLenPdf::21                   1                       # What write queue length does an incoming req see (Count)
system.far_mem_ctrl.wrQLenPdf::22                   1                       # What write queue length does an incoming req see (Count)
system.far_mem_ctrl.wrQLenPdf::23                   1                       # What write queue length does an incoming req see (Count)
system.far_mem_ctrl.wrQLenPdf::24                   1                       # What write queue length does an incoming req see (Count)
system.far_mem_ctrl.wrQLenPdf::25                   1                       # What write queue length does an incoming req see (Count)
system.far_mem_ctrl.wrQLenPdf::26                   1                       # What write queue length does an incoming req see (Count)
system.far_mem_ctrl.wrQLenPdf::27                   1                       # What write queue length does an incoming req see (Count)
system.far_mem_ctrl.wrQLenPdf::28                   1                       # What write queue length does an incoming req see (Count)
system.far_mem_ctrl.wrQLenPdf::29                   1                       # What write queue length does an incoming req see (Count)
system.far_mem_ctrl.wrQLenPdf::30                   1                       # What write queue length does an incoming req see (Count)
system.far_mem_ctrl.wrQLenPdf::31                   1                       # What write queue length does an incoming req see (Count)
system.far_mem_ctrl.wrQLenPdf::32                   1                       # What write queue length does an incoming req see (Count)
system.far_mem_ctrl.wrQLenPdf::33                   1                       # What write queue length does an incoming req see (Count)
system.far_mem_ctrl.wrQLenPdf::34                   1                       # What write queue length does an incoming req see (Count)
system.far_mem_ctrl.wrQLenPdf::35                   1                       # What write queue length does an incoming req see (Count)
system.far_mem_ctrl.wrQLenPdf::36                   1                       # What write queue length does an incoming req see (Count)
system.far_mem_ctrl.wrQLenPdf::37                   1                       # What write queue length does an incoming req see (Count)
system.far_mem_ctrl.wrQLenPdf::38                   1                       # What write queue length does an incoming req see (Count)
system.far_mem_ctrl.wrQLenPdf::39                   1                       # What write queue length does an incoming req see (Count)
system.far_mem_ctrl.wrQLenPdf::40                   1                       # What write queue length does an incoming req see (Count)
system.far_mem_ctrl.wrQLenPdf::41                   1                       # What write queue length does an incoming req see (Count)
system.far_mem_ctrl.wrQLenPdf::42                   1                       # What write queue length does an incoming req see (Count)
system.far_mem_ctrl.wrQLenPdf::43                   1                       # What write queue length does an incoming req see (Count)
system.far_mem_ctrl.wrQLenPdf::44                   1                       # What write queue length does an incoming req see (Count)
system.far_mem_ctrl.wrQLenPdf::45                   1                       # What write queue length does an incoming req see (Count)
system.far_mem_ctrl.wrQLenPdf::46                   1                       # What write queue length does an incoming req see (Count)
system.far_mem_ctrl.wrQLenPdf::47                6969                       # What write queue length does an incoming req see (Count)
system.far_mem_ctrl.wrQLenPdf::48                8946                       # What write queue length does an incoming req see (Count)
system.far_mem_ctrl.wrQLenPdf::49                9637                       # What write queue length does an incoming req see (Count)
system.far_mem_ctrl.wrQLenPdf::50                9942                       # What write queue length does an incoming req see (Count)
system.far_mem_ctrl.wrQLenPdf::51               10123                       # What write queue length does an incoming req see (Count)
system.far_mem_ctrl.wrQLenPdf::52               10417                       # What write queue length does an incoming req see (Count)
system.far_mem_ctrl.wrQLenPdf::53               10716                       # What write queue length does an incoming req see (Count)
system.far_mem_ctrl.wrQLenPdf::54               10951                       # What write queue length does an incoming req see (Count)
system.far_mem_ctrl.wrQLenPdf::55               11066                       # What write queue length does an incoming req see (Count)
system.far_mem_ctrl.wrQLenPdf::56               11412                       # What write queue length does an incoming req see (Count)
system.far_mem_ctrl.wrQLenPdf::57               11572                       # What write queue length does an incoming req see (Count)
system.far_mem_ctrl.wrQLenPdf::58               11686                       # What write queue length does an incoming req see (Count)
system.far_mem_ctrl.wrQLenPdf::59               11875                       # What write queue length does an incoming req see (Count)
system.far_mem_ctrl.wrQLenPdf::60               11969                       # What write queue length does an incoming req see (Count)
system.far_mem_ctrl.wrQLenPdf::61               12011                       # What write queue length does an incoming req see (Count)
system.far_mem_ctrl.wrQLenPdf::62               12246                       # What write queue length does an incoming req see (Count)
system.far_mem_ctrl.wrQLenPdf::63               12341                       # What write queue length does an incoming req see (Count)
system.far_mem_ctrl.wrQLenPdf::64               12122                       # What write queue length does an incoming req see (Count)
system.far_mem_ctrl.wrQLenPdf::65               11000                       # What write queue length does an incoming req see (Count)
system.far_mem_ctrl.wrQLenPdf::66               10436                       # What write queue length does an incoming req see (Count)
system.far_mem_ctrl.wrQLenPdf::67               10269                       # What write queue length does an incoming req see (Count)
system.far_mem_ctrl.wrQLenPdf::68                9997                       # What write queue length does an incoming req see (Count)
system.far_mem_ctrl.wrQLenPdf::69                9911                       # What write queue length does an incoming req see (Count)
system.far_mem_ctrl.wrQLenPdf::70                9677                       # What write queue length does an incoming req see (Count)
system.far_mem_ctrl.wrQLenPdf::71                9386                       # What write queue length does an incoming req see (Count)
system.far_mem_ctrl.wrQLenPdf::72                9259                       # What write queue length does an incoming req see (Count)
system.far_mem_ctrl.wrQLenPdf::73                9208                       # What write queue length does an incoming req see (Count)
system.far_mem_ctrl.wrQLenPdf::74                9210                       # What write queue length does an incoming req see (Count)
system.far_mem_ctrl.wrQLenPdf::75                9035                       # What write queue length does an incoming req see (Count)
system.far_mem_ctrl.wrQLenPdf::76                8919                       # What write queue length does an incoming req see (Count)
system.far_mem_ctrl.wrQLenPdf::77                8698                       # What write queue length does an incoming req see (Count)
system.far_mem_ctrl.wrQLenPdf::78                8480                       # What write queue length does an incoming req see (Count)
system.far_mem_ctrl.wrQLenPdf::79                8230                       # What write queue length does an incoming req see (Count)
system.far_mem_ctrl.wrQLenPdf::80                8099                       # What write queue length does an incoming req see (Count)
system.far_mem_ctrl.wrQLenPdf::81                8042                       # What write queue length does an incoming req see (Count)
system.far_mem_ctrl.wrQLenPdf::82                7969                       # What write queue length does an incoming req see (Count)
system.far_mem_ctrl.wrQLenPdf::83                8020                       # What write queue length does an incoming req see (Count)
system.far_mem_ctrl.wrQLenPdf::84                7849                       # What write queue length does an incoming req see (Count)
system.far_mem_ctrl.wrQLenPdf::85                7829                       # What write queue length does an incoming req see (Count)
system.far_mem_ctrl.wrQLenPdf::86                7600                       # What write queue length does an incoming req see (Count)
system.far_mem_ctrl.wrQLenPdf::87                7547                       # What write queue length does an incoming req see (Count)
system.far_mem_ctrl.wrQLenPdf::88                7194                       # What write queue length does an incoming req see (Count)
system.far_mem_ctrl.wrQLenPdf::89                7244                       # What write queue length does an incoming req see (Count)
system.far_mem_ctrl.wrQLenPdf::90                7206                       # What write queue length does an incoming req see (Count)
system.far_mem_ctrl.wrQLenPdf::91                7130                       # What write queue length does an incoming req see (Count)
system.far_mem_ctrl.wrQLenPdf::92                7107                       # What write queue length does an incoming req see (Count)
system.far_mem_ctrl.wrQLenPdf::93                6899                       # What write queue length does an incoming req see (Count)
system.far_mem_ctrl.wrQLenPdf::94                6710                       # What write queue length does an incoming req see (Count)
system.far_mem_ctrl.wrQLenPdf::95                6456                       # What write queue length does an incoming req see (Count)
system.far_mem_ctrl.wrQLenPdf::96                6378                       # What write queue length does an incoming req see (Count)
system.far_mem_ctrl.wrQLenPdf::97                6300                       # What write queue length does an incoming req see (Count)
system.far_mem_ctrl.wrQLenPdf::98                6193                       # What write queue length does an incoming req see (Count)
system.far_mem_ctrl.wrQLenPdf::99                6140                       # What write queue length does an incoming req see (Count)
system.far_mem_ctrl.wrQLenPdf::100               6041                       # What write queue length does an incoming req see (Count)
system.far_mem_ctrl.wrQLenPdf::101               5954                       # What write queue length does an incoming req see (Count)
system.far_mem_ctrl.wrQLenPdf::102               5755                       # What write queue length does an incoming req see (Count)
system.far_mem_ctrl.wrQLenPdf::103               5726                       # What write queue length does an incoming req see (Count)
system.far_mem_ctrl.wrQLenPdf::104               5900                       # What write queue length does an incoming req see (Count)
system.far_mem_ctrl.wrQLenPdf::105               5857                       # What write queue length does an incoming req see (Count)
system.far_mem_ctrl.wrQLenPdf::106               5716                       # What write queue length does an incoming req see (Count)
system.far_mem_ctrl.wrQLenPdf::107               5636                       # What write queue length does an incoming req see (Count)
system.far_mem_ctrl.wrQLenPdf::108               5599                       # What write queue length does an incoming req see (Count)
system.far_mem_ctrl.wrQLenPdf::109               5574                       # What write queue length does an incoming req see (Count)
system.far_mem_ctrl.wrQLenPdf::110               5528                       # What write queue length does an incoming req see (Count)
system.far_mem_ctrl.wrQLenPdf::111               5421                       # What write queue length does an incoming req see (Count)
system.far_mem_ctrl.wrQLenPdf::112               5244                       # What write queue length does an incoming req see (Count)
system.far_mem_ctrl.wrQLenPdf::113               5198                       # What write queue length does an incoming req see (Count)
system.far_mem_ctrl.wrQLenPdf::114               5054                       # What write queue length does an incoming req see (Count)
system.far_mem_ctrl.wrQLenPdf::115               5036                       # What write queue length does an incoming req see (Count)
system.far_mem_ctrl.wrQLenPdf::116               4933                       # What write queue length does an incoming req see (Count)
system.far_mem_ctrl.wrQLenPdf::117               4833                       # What write queue length does an incoming req see (Count)
system.far_mem_ctrl.wrQLenPdf::118               4786                       # What write queue length does an incoming req see (Count)
system.far_mem_ctrl.wrQLenPdf::119               4705                       # What write queue length does an incoming req see (Count)
system.far_mem_ctrl.wrQLenPdf::120               4616                       # What write queue length does an incoming req see (Count)
system.far_mem_ctrl.wrQLenPdf::121               4647                       # What write queue length does an incoming req see (Count)
system.far_mem_ctrl.wrQLenPdf::122               4675                       # What write queue length does an incoming req see (Count)
system.far_mem_ctrl.wrQLenPdf::123               5033                       # What write queue length does an incoming req see (Count)
system.far_mem_ctrl.wrQLenPdf::124               5607                       # What write queue length does an incoming req see (Count)
system.far_mem_ctrl.wrQLenPdf::125               7067                       # What write queue length does an incoming req see (Count)
system.far_mem_ctrl.wrQLenPdf::126              14130                       # What write queue length does an incoming req see (Count)
system.far_mem_ctrl.wrQLenPdf::127             285813                       # What write queue length does an incoming req see (Count)
system.far_mem_ctrl.rdPerTurnAround::samples         6968                       # Reads before turning the bus around for writes (Count)
system.far_mem_ctrl.rdPerTurnAround::0           6968    100.00%    100.00% # Reads before turning the bus around for writes (Count)
system.far_mem_ctrl.rdPerTurnAround::total         6968                       # Reads before turning the bus around for writes (Count)
system.far_mem_ctrl.wrPerTurnAround::samples         6968                       # Writes before turning the bus around for reads (Count)
system.far_mem_ctrl.wrPerTurnAround::0           6968    100.00%    100.00% # Writes before turning the bus around for reads (Count)
system.far_mem_ctrl.wrPerTurnAround::total         6968                       # Writes before turning the bus around for reads (Count)
system.far_mem_ctrl.bytesReadWrQ                92096                       # Total number of bytes read from write queue (Byte)
system.far_mem_ctrl.bytesReadSys             75012928                       # Total read bytes from the system interface side (Byte)
system.far_mem_ctrl.bytesWrittenSys         113115968                       # Total written bytes from the system interface side (Byte)
system.far_mem_ctrl.avgRdBWSys           7501292800.00000000                       # Average system read bandwidth in Byte/s ((Byte/Second))
system.far_mem_ctrl.avgWrBWSys           11311596800.00000000                       # Average system write bandwidth in Byte/s ((Byte/Second))
system.far_mem_ctrl.totGap                 9999929001                       # Total gap between requests (Tick)
system.far_mem_ctrl.avgGap                    3401.90                       # Average gap between requests ((Tick/Count))
system.far_mem_ctrl.requestorReadBytes::writebacks     74920128                       # Per-requestor bytes read from memory (Byte)
system.far_mem_ctrl.requestorWriteBytes::writebacks     58985664                       # Per-requestor bytes write to memory (Byte)
system.far_mem_ctrl.requestorReadRate::writebacks 7492012800.000000000000                       # Per-requestor bytes read from memory rate ((Byte/Second))
system.far_mem_ctrl.requestorWriteRate::writebacks 5898566400.000000000000                       # Per-requestor bytes write to memory rate ((Byte/Second))
system.far_mem_ctrl.requestorReadAccesses::writebacks      1172077                       # Per-requestor read serviced memory accesses (Count)
system.far_mem_ctrl.requestorWriteAccesses::writebacks      1767437                       # Per-requestor write serviced memory accesses (Count)
system.far_mem_ctrl.requestorReadTotalLat::writebacks 240767499515                       # Per-requestor read total memory access latency (Tick)
system.far_mem_ctrl.requestorWriteTotalLat::writebacks 889596946596                       # Per-requestor write total memory access latency (Tick)
system.far_mem_ctrl.requestorReadAvgLat::writebacks    205419.52                       # Per-requestor read average memory access latency ((Tick/Count))
system.far_mem_ctrl.requestorWriteAvgLat::writebacks    503325.97                       # Per-requestor write average memory access latency ((Tick/Count))
system.far_mem_ctrl.dram.bytesRead::writebacks     75011392                       # Number of bytes read from this memory (Byte)
system.far_mem_ctrl.dram.bytesRead::total     75011392                       # Number of bytes read from this memory (Byte)
system.far_mem_ctrl.dram.bytesWritten::writebacks    113115968                       # Number of bytes written to this memory (Byte)
system.far_mem_ctrl.dram.bytesWritten::total    113115968                       # Number of bytes written to this memory (Byte)
system.far_mem_ctrl.dram.numReads::writebacks      1172053                       # Number of read requests responded to by this memory (Count)
system.far_mem_ctrl.dram.numReads::total      1172053                       # Number of read requests responded to by this memory (Count)
system.far_mem_ctrl.dram.numWrites::writebacks      1767437                       # Number of write requests responded to by this memory (Count)
system.far_mem_ctrl.dram.numWrites::total      1767437                       # Number of write requests responded to by this memory (Count)
system.far_mem_ctrl.dram.bwRead::writebacks   7501139200                       # Total read bandwidth from this memory ((Byte/Second))
system.far_mem_ctrl.dram.bwRead::total     7501139200                       # Total read bandwidth from this memory ((Byte/Second))
system.far_mem_ctrl.dram.bwWrite::writebacks  11311596800                       # Write bandwidth from this memory ((Byte/Second))
system.far_mem_ctrl.dram.bwWrite::total   11311596800                       # Write bandwidth from this memory ((Byte/Second))
system.far_mem_ctrl.dram.bwTotal::writebacks  18812736000                       # Total bandwidth to/from this memory ((Byte/Second))
system.far_mem_ctrl.dram.bwTotal::total   18812736000                       # Total bandwidth to/from this memory ((Byte/Second))
system.far_mem_ctrl.dram.readBursts           1170627                       # Number of DRAM read bursts (Count)
system.far_mem_ctrl.dram.writeBursts           921651                       # Number of DRAM write bursts (Count)
system.far_mem_ctrl.dram.perBankRdBursts::0        36217                       # Per bank write bursts (Count)
system.far_mem_ctrl.dram.perBankRdBursts::1        36690                       # Per bank write bursts (Count)
system.far_mem_ctrl.dram.perBankRdBursts::2        36742                       # Per bank write bursts (Count)
system.far_mem_ctrl.dram.perBankRdBursts::3        36409                       # Per bank write bursts (Count)
system.far_mem_ctrl.dram.perBankRdBursts::4        36948                       # Per bank write bursts (Count)
system.far_mem_ctrl.dram.perBankRdBursts::5        36539                       # Per bank write bursts (Count)
system.far_mem_ctrl.dram.perBankRdBursts::6        36442                       # Per bank write bursts (Count)
system.far_mem_ctrl.dram.perBankRdBursts::7        36513                       # Per bank write bursts (Count)
system.far_mem_ctrl.dram.perBankRdBursts::8        36460                       # Per bank write bursts (Count)
system.far_mem_ctrl.dram.perBankRdBursts::9        36629                       # Per bank write bursts (Count)
system.far_mem_ctrl.dram.perBankRdBursts::10        36773                       # Per bank write bursts (Count)
system.far_mem_ctrl.dram.perBankRdBursts::11        36486                       # Per bank write bursts (Count)
system.far_mem_ctrl.dram.perBankRdBursts::12        37088                       # Per bank write bursts (Count)
system.far_mem_ctrl.dram.perBankRdBursts::13        36480                       # Per bank write bursts (Count)
system.far_mem_ctrl.dram.perBankRdBursts::14        36742                       # Per bank write bursts (Count)
system.far_mem_ctrl.dram.perBankRdBursts::15        36568                       # Per bank write bursts (Count)
system.far_mem_ctrl.dram.perBankRdBursts::16        36466                       # Per bank write bursts (Count)
system.far_mem_ctrl.dram.perBankRdBursts::17        36549                       # Per bank write bursts (Count)
system.far_mem_ctrl.dram.perBankRdBursts::18        36524                       # Per bank write bursts (Count)
system.far_mem_ctrl.dram.perBankRdBursts::19        36700                       # Per bank write bursts (Count)
system.far_mem_ctrl.dram.perBankRdBursts::20        36741                       # Per bank write bursts (Count)
system.far_mem_ctrl.dram.perBankRdBursts::21        36549                       # Per bank write bursts (Count)
system.far_mem_ctrl.dram.perBankRdBursts::22        36572                       # Per bank write bursts (Count)
system.far_mem_ctrl.dram.perBankRdBursts::23        36757                       # Per bank write bursts (Count)
system.far_mem_ctrl.dram.perBankRdBursts::24        36185                       # Per bank write bursts (Count)
system.far_mem_ctrl.dram.perBankRdBursts::25        36490                       # Per bank write bursts (Count)
system.far_mem_ctrl.dram.perBankRdBursts::26        36083                       # Per bank write bursts (Count)
system.far_mem_ctrl.dram.perBankRdBursts::27        36579                       # Per bank write bursts (Count)
system.far_mem_ctrl.dram.perBankRdBursts::28        36706                       # Per bank write bursts (Count)
system.far_mem_ctrl.dram.perBankRdBursts::29        36566                       # Per bank write bursts (Count)
system.far_mem_ctrl.dram.perBankRdBursts::30        36591                       # Per bank write bursts (Count)
system.far_mem_ctrl.dram.perBankRdBursts::31        36843                       # Per bank write bursts (Count)
system.far_mem_ctrl.dram.perBankWrBursts::0        36790                       # Per bank write bursts (Count)
system.far_mem_ctrl.dram.perBankWrBursts::1        28710                       # Per bank write bursts (Count)
system.far_mem_ctrl.dram.perBankWrBursts::2        28789                       # Per bank write bursts (Count)
system.far_mem_ctrl.dram.perBankWrBursts::3        28286                       # Per bank write bursts (Count)
system.far_mem_ctrl.dram.perBankWrBursts::4        28727                       # Per bank write bursts (Count)
system.far_mem_ctrl.dram.perBankWrBursts::5        28516                       # Per bank write bursts (Count)
system.far_mem_ctrl.dram.perBankWrBursts::6        28236                       # Per bank write bursts (Count)
system.far_mem_ctrl.dram.perBankWrBursts::7        28375                       # Per bank write bursts (Count)
system.far_mem_ctrl.dram.perBankWrBursts::8        28375                       # Per bank write bursts (Count)
system.far_mem_ctrl.dram.perBankWrBursts::9        28516                       # Per bank write bursts (Count)
system.far_mem_ctrl.dram.perBankWrBursts::10        28563                       # Per bank write bursts (Count)
system.far_mem_ctrl.dram.perBankWrBursts::11        28656                       # Per bank write bursts (Count)
system.far_mem_ctrl.dram.perBankWrBursts::12        29053                       # Per bank write bursts (Count)
system.far_mem_ctrl.dram.perBankWrBursts::13        28402                       # Per bank write bursts (Count)
system.far_mem_ctrl.dram.perBankWrBursts::14        28575                       # Per bank write bursts (Count)
system.far_mem_ctrl.dram.perBankWrBursts::15        28648                       # Per bank write bursts (Count)
system.far_mem_ctrl.dram.perBankWrBursts::16        28466                       # Per bank write bursts (Count)
system.far_mem_ctrl.dram.perBankWrBursts::17        28329                       # Per bank write bursts (Count)
system.far_mem_ctrl.dram.perBankWrBursts::18        28534                       # Per bank write bursts (Count)
system.far_mem_ctrl.dram.perBankWrBursts::19        28397                       # Per bank write bursts (Count)
system.far_mem_ctrl.dram.perBankWrBursts::20        28724                       # Per bank write bursts (Count)
system.far_mem_ctrl.dram.perBankWrBursts::21        28459                       # Per bank write bursts (Count)
system.far_mem_ctrl.dram.perBankWrBursts::22        28618                       # Per bank write bursts (Count)
system.far_mem_ctrl.dram.perBankWrBursts::23        28838                       # Per bank write bursts (Count)
system.far_mem_ctrl.dram.perBankWrBursts::24        28391                       # Per bank write bursts (Count)
system.far_mem_ctrl.dram.perBankWrBursts::25        28478                       # Per bank write bursts (Count)
system.far_mem_ctrl.dram.perBankWrBursts::26        28160                       # Per bank write bursts (Count)
system.far_mem_ctrl.dram.perBankWrBursts::27        28630                       # Per bank write bursts (Count)
system.far_mem_ctrl.dram.perBankWrBursts::28        28639                       # Per bank write bursts (Count)
system.far_mem_ctrl.dram.perBankWrBursts::29        28537                       # Per bank write bursts (Count)
system.far_mem_ctrl.dram.perBankWrBursts::30        28420                       # Per bank write bursts (Count)
system.far_mem_ctrl.dram.perBankWrBursts::31        28814                       # Per bank write bursts (Count)
system.far_mem_ctrl.dram.totQLat         220290892031                       # Total ticks spent queuing (Tick)
system.far_mem_ctrl.dram.totBusLat         3900529164                       # Total ticks spent in databus transfers (Tick)
system.far_mem_ctrl.dram.totMemAccLat    240767499515                       # Total ticks spent from burst creation until serviced by the DRAM (Tick)
system.far_mem_ctrl.dram.avgQLat            188181.97                       # Average queueing delay per DRAM burst ((Tick/Count))
system.far_mem_ctrl.dram.avgBusLat            3332.00                       # Average bus latency per DRAM burst ((Tick/Count))
system.far_mem_ctrl.dram.avgMemAccLat       205673.97                       # Average memory access latency per DRAM burst ((Tick/Count))
system.far_mem_ctrl.dram.readRowHits              374                       # Number of row buffer hits during reads (Count)
system.far_mem_ctrl.dram.writeRowHits            3071                       # Number of row buffer hits during writes (Count)
system.far_mem_ctrl.dram.readRowHitRate          0.03                       # Row buffer hit rate for reads (Ratio)
system.far_mem_ctrl.dram.writeRowHitRate         0.33                       # Row buffer hit rate for writes (Ratio)
system.far_mem_ctrl.dram.bytesPerActivate::samples      2088804                       # Bytes accessed per row activation (Byte)
system.far_mem_ctrl.dram.bytesPerActivate::mean    64.105553                       # Bytes accessed per row activation (Byte)
system.far_mem_ctrl.dram.bytesPerActivate::gmean    64.051000                       # Bytes accessed per row activation (Byte)
system.far_mem_ctrl.dram.bytesPerActivate::stdev     5.997172                       # Bytes accessed per row activation (Byte)
system.far_mem_ctrl.dram.bytesPerActivate::0-127      2086863     99.91%     99.91% # Bytes accessed per row activation (Byte)
system.far_mem_ctrl.dram.bytesPerActivate::128-255         1712      0.08%     99.99% # Bytes accessed per row activation (Byte)
system.far_mem_ctrl.dram.bytesPerActivate::256-383           87      0.00%     99.99% # Bytes accessed per row activation (Byte)
system.far_mem_ctrl.dram.bytesPerActivate::384-511           35      0.00%     99.99% # Bytes accessed per row activation (Byte)
system.far_mem_ctrl.dram.bytesPerActivate::512-639           28      0.00%    100.00% # Bytes accessed per row activation (Byte)
system.far_mem_ctrl.dram.bytesPerActivate::640-767           20      0.00%    100.00% # Bytes accessed per row activation (Byte)
system.far_mem_ctrl.dram.bytesPerActivate::768-895           19      0.00%    100.00% # Bytes accessed per row activation (Byte)
system.far_mem_ctrl.dram.bytesPerActivate::896-1023            9      0.00%    100.00% # Bytes accessed per row activation (Byte)
system.far_mem_ctrl.dram.bytesPerActivate::1024-1151           31      0.00%    100.00% # Bytes accessed per row activation (Byte)
system.far_mem_ctrl.dram.bytesPerActivate::total      2088804                       # Bytes accessed per row activation (Byte)
system.far_mem_ctrl.dram.bytesRead           74920128                       # Total bytes read (Byte)
system.far_mem_ctrl.dram.bytesWritten        58985664                       # Total bytes written (Byte)
system.far_mem_ctrl.dram.avgRdBW          7492.012800                       # Average DRAM read bandwidth in MiBytes/s ((Byte/Second))
system.far_mem_ctrl.dram.avgWrBW          5898.566400                       # Average DRAM write bandwidth in MiBytes/s ((Byte/Second))
system.far_mem_ctrl.dram.peakBW              19207.00                       # Theoretical peak bandwidth in MiByte/s ((Byte/Second))
system.far_mem_ctrl.dram.busUtil                69.72                       # Data bus utilization in percentage (Ratio)
system.far_mem_ctrl.dram.busUtilRead            39.01                       # Data bus utilization in percentage for reads (Ratio)
system.far_mem_ctrl.dram.busUtilWrite           30.71                       # Data bus utilization in percentage for writes (Ratio)
system.far_mem_ctrl.dram.pageHitRate             0.16                       # Row buffer hit rate, read and write combined (Ratio)
system.far_mem_ctrl.dram.power_state.pwrStateResidencyTicks::UNDEFINED  10000000000                       # Cumulative time (in ticks) in various power states (Tick)
system.far_mem_ctrl.dram.rank0.actEnergy 3269381484.095997                       # Energy for activate commands per rank (pJ) (Joule)
system.far_mem_ctrl.dram.rank0.preEnergy 4346534426.505605                       # Energy for precharge commands per rank (pJ) (Joule)
system.far_mem_ctrl.dram.rank0.readEnergy 2463749113.996805                       # Energy for read commands per rank (pJ) (Joule)
system.far_mem_ctrl.dram.rank0.writeEnergy 1748516233.631999                       # Energy for write commands per rank (pJ) (Joule)
system.far_mem_ctrl.dram.rank0.refreshEnergy 1778824873.324749                       # Energy for refresh commands per rank (pJ) (Joule)
system.far_mem_ctrl.dram.rank0.actBackEnergy 8446942542.931209                       # Energy for active background per rank (pJ) (Joule)
system.far_mem_ctrl.dram.rank0.preBackEnergy 37693908.403200                       # Energy for precharge background per rank (pJ) (Joule)
system.far_mem_ctrl.dram.rank0.actPowerDownEnergy            0                       # Energy for active power-down per rank (pJ) (Joule)
system.far_mem_ctrl.dram.rank0.prePowerDownEnergy            0                       # Energy for precharge power-down per rank (pJ) (Joule)
system.far_mem_ctrl.dram.rank0.selfRefreshEnergy            0                       # Energy for self refresh per rank (pJ) (Joule)
system.far_mem_ctrl.dram.rank0.totalEnergy 22091642582.889591                       # Total energy per rank (pJ) (Joule)
system.far_mem_ctrl.dram.rank0.averagePower  2209.164258                       # Core power per rank (mW) (Watt)
system.far_mem_ctrl.dram.rank0.totalIdleTime            0                       # Total Idle time Per DRAM Rank (Tick)
system.far_mem_ctrl.dram.rank0.pwrStateTime::IDLE     22134711                       # Time in different power states (Tick)
system.far_mem_ctrl.dram.rank0.pwrStateTime::REF    449400000                       # Time in different power states (Tick)
system.far_mem_ctrl.dram.rank0.pwrStateTime::SREF            0                       # Time in different power states (Tick)
system.far_mem_ctrl.dram.rank0.pwrStateTime::PRE_PDN            0                       # Time in different power states (Tick)
system.far_mem_ctrl.dram.rank0.pwrStateTime::ACT   9528465289                       # Time in different power states (Tick)
system.far_mem_ctrl.dram.rank0.pwrStateTime::ACT_PDN            0                       # Time in different power states (Tick)
system.far_mem_ctrl.dram.rank1.actEnergy 3245158137.312003                       # Energy for activate commands per rank (pJ) (Joule)
system.far_mem_ctrl.dram.rank1.preEnergy 4314350529.216000                       # Energy for precharge commands per rank (pJ) (Joule)
system.far_mem_ctrl.dram.rank1.readEnergy 2460245252.102398                       # Energy for read commands per rank (pJ) (Joule)
system.far_mem_ctrl.dram.rank1.writeEnergy 1715505363.264001                       # Energy for write commands per rank (pJ) (Joule)
system.far_mem_ctrl.dram.rank1.refreshEnergy 1778824873.324749                       # Energy for refresh commands per rank (pJ) (Joule)
system.far_mem_ctrl.dram.rank1.actBackEnergy 8447219260.199990                       # Energy for active background per rank (pJ) (Joule)
system.far_mem_ctrl.dram.rank1.preBackEnergy 37481289.484801                       # Energy for precharge background per rank (pJ) (Joule)
system.far_mem_ctrl.dram.rank1.actPowerDownEnergy            0                       # Energy for active power-down per rank (pJ) (Joule)
system.far_mem_ctrl.dram.rank1.prePowerDownEnergy            0                       # Energy for precharge power-down per rank (pJ) (Joule)
system.far_mem_ctrl.dram.rank1.selfRefreshEnergy            0                       # Energy for self refresh per rank (pJ) (Joule)
system.far_mem_ctrl.dram.rank1.totalEnergy 21998784704.904030                       # Total energy per rank (pJ) (Joule)
system.far_mem_ctrl.dram.rank1.averagePower  2199.878470                       # Core power per rank (mW) (Watt)
system.far_mem_ctrl.dram.rank1.totalIdleTime            0                       # Total Idle time Per DRAM Rank (Tick)
system.far_mem_ctrl.dram.rank1.pwrStateTime::IDLE     21775747                       # Time in different power states (Tick)
system.far_mem_ctrl.dram.rank1.pwrStateTime::REF    449400000                       # Time in different power states (Tick)
system.far_mem_ctrl.dram.rank1.pwrStateTime::SREF            0                       # Time in different power states (Tick)
system.far_mem_ctrl.dram.rank1.pwrStateTime::PRE_PDN            0                       # Time in different power states (Tick)
system.far_mem_ctrl.dram.rank1.pwrStateTime::ACT   9528824253                       # Time in different power states (Tick)
system.far_mem_ctrl.dram.rank1.pwrStateTime::ACT_PDN            0                       # Time in different power states (Tick)
system.far_mem_ctrl.power_state.pwrStateResidencyTicks::UNDEFINED  10000000000                       # Cumulative time (in ticks) in various power states (Tick)
system.generator.numSuppressed                      0                       # Number of suppressed packets to non-memory space (Count)
system.generator.numPackets                   1767660                       # Number of packets generated (Count)
system.generator.numRetries                   1500147                       # Number of retries (Count)
system.generator.retryTicks                9711226032                       # Time spent waiting due to back-pressure (Tick)
system.generator.bytesRead                   75010560                       # Number of bytes read (Byte)
system.generator.bytesWritten                38107968                       # Number of bytes written (Byte)
system.generator.totalReadLatency        1417946934863                       # Total latency of read requests (Tick)
system.generator.totalWriteLatency        15302548811                       # Total latency of write requests (Tick)
system.generator.totalReads                   1172040                       # Total num of reads (Count)
system.generator.totalWrites                   595437                       # Total num of writes (Count)
system.generator.avgReadLatency          1209811.043022                       # Avg latency of read requests ((Tick/Count))
system.generator.avgWriteLatency         25699.694193                       # Avg latency of write requests ((Tick/Count))
system.generator.readBW                    7501056000                       # Read bandwidth ((Byte/Second))
system.generator.writeBW                   3810796800                       # Write bandwidth ((Byte/Second))
system.generator.power_state.pwrStateResidencyTicks::UNDEFINED  10000000000                       # Cumulative time (in ticks) in various power states (Tick)
system.loc_mem_ctrl.avgPriority_writebacks::samples   7069828.00                       # Average QoS priority value for accepted requests (Count)
system.loc_mem_ctrl.priorityMinLatency   0.000000024000                       # per QoS priority minimum request to response latency (Second)
system.loc_mem_ctrl.priorityMaxLatency   0.000003130000                       # per QoS priority maximum request to response latency (Second)
system.loc_mem_ctrl.numReadWriteTurnArounds            0                       # Number of turnarounds from READ to WRITE (Count)
system.loc_mem_ctrl.numWriteReadTurnArounds            0                       # Number of turnarounds from WRITE to READ (Count)
system.loc_mem_ctrl.numStayReadState          7153369                       # Number of times bus staying in READ state (Count)
system.loc_mem_ctrl.numStayWriteState               0                       # Number of times bus staying in WRITE state (Count)
system.loc_mem_ctrl.readReqs                  1767510                       # Number of read requests accepted (Count)
system.loc_mem_ctrl.writeReqs                 1767407                       # Number of write requests accepted (Count)
system.loc_mem_ctrl.readBursts                3535020                       # Number of controller read bursts, including those serviced by the write queue (Count)
system.loc_mem_ctrl.writeBursts               3534814                       # Number of controller write bursts, including those merged in the write queue (Count)
system.loc_mem_ctrl.servicedByWrQ                   4                       # Number of controller read bursts serviced by the write queue (Count)
system.loc_mem_ctrl.mergedWrBursts                  2                       # Number of controller write bursts merged with an existing one (Count)
system.loc_mem_ctrl.avgRdQLen                   92.25                       # Average read queue length when enqueuing ((Count/Tick))
system.loc_mem_ctrl.avgWrQLen                   80.60                       # Average write queue length when enqueuing ((Count/Tick))
system.loc_mem_ctrl.numRdRetry                3966470                       # Number of times read queue was full causing retry (Count)
system.loc_mem_ctrl.numWrRetry                4162140                       # Number of times write queue was full causing retry (Count)
system.loc_mem_ctrl.readPktSize::0                  0                       # Read request sizes (log2) (Count)
system.loc_mem_ctrl.readPktSize::1                  0                       # Read request sizes (log2) (Count)
system.loc_mem_ctrl.readPktSize::2                  0                       # Read request sizes (log2) (Count)
system.loc_mem_ctrl.readPktSize::3                  0                       # Read request sizes (log2) (Count)
system.loc_mem_ctrl.readPktSize::4                  0                       # Read request sizes (log2) (Count)
system.loc_mem_ctrl.readPktSize::5            3535020                       # Read request sizes (log2) (Count)
system.loc_mem_ctrl.readPktSize::6                  0                       # Read request sizes (log2) (Count)
system.loc_mem_ctrl.writePktSize::0                 0                       # Write request sizes (log2) (Count)
system.loc_mem_ctrl.writePktSize::1                 0                       # Write request sizes (log2) (Count)
system.loc_mem_ctrl.writePktSize::2                 0                       # Write request sizes (log2) (Count)
system.loc_mem_ctrl.writePktSize::3                 0                       # Write request sizes (log2) (Count)
system.loc_mem_ctrl.writePktSize::4                 0                       # Write request sizes (log2) (Count)
system.loc_mem_ctrl.writePktSize::5           3534814                       # Write request sizes (log2) (Count)
system.loc_mem_ctrl.writePktSize::6                 0                       # Write request sizes (log2) (Count)
system.loc_mem_ctrl.rdQLenPdf::0                 2425                       # What read queue length does an incoming req see (Count)
system.loc_mem_ctrl.rdQLenPdf::1                 2567                       # What read queue length does an incoming req see (Count)
system.loc_mem_ctrl.rdQLenPdf::2                 4201                       # What read queue length does an incoming req see (Count)
system.loc_mem_ctrl.rdQLenPdf::3                 4700                       # What read queue length does an incoming req see (Count)
system.loc_mem_ctrl.rdQLenPdf::4                 5180                       # What read queue length does an incoming req see (Count)
system.loc_mem_ctrl.rdQLenPdf::5                 5627                       # What read queue length does an incoming req see (Count)
system.loc_mem_ctrl.rdQLenPdf::6                 5667                       # What read queue length does an incoming req see (Count)
system.loc_mem_ctrl.rdQLenPdf::7                 5934                       # What read queue length does an incoming req see (Count)
system.loc_mem_ctrl.rdQLenPdf::8                 5963                       # What read queue length does an incoming req see (Count)
system.loc_mem_ctrl.rdQLenPdf::9                 6089                       # What read queue length does an incoming req see (Count)
system.loc_mem_ctrl.rdQLenPdf::10                6214                       # What read queue length does an incoming req see (Count)
system.loc_mem_ctrl.rdQLenPdf::11                6360                       # What read queue length does an incoming req see (Count)
system.loc_mem_ctrl.rdQLenPdf::12                6369                       # What read queue length does an incoming req see (Count)
system.loc_mem_ctrl.rdQLenPdf::13                6472                       # What read queue length does an incoming req see (Count)
system.loc_mem_ctrl.rdQLenPdf::14                6510                       # What read queue length does an incoming req see (Count)
system.loc_mem_ctrl.rdQLenPdf::15                6557                       # What read queue length does an incoming req see (Count)
system.loc_mem_ctrl.rdQLenPdf::16                6684                       # What read queue length does an incoming req see (Count)
system.loc_mem_ctrl.rdQLenPdf::17                6661                       # What read queue length does an incoming req see (Count)
system.loc_mem_ctrl.rdQLenPdf::18                6612                       # What read queue length does an incoming req see (Count)
system.loc_mem_ctrl.rdQLenPdf::19                6692                       # What read queue length does an incoming req see (Count)
system.loc_mem_ctrl.rdQLenPdf::20                6812                       # What read queue length does an incoming req see (Count)
system.loc_mem_ctrl.rdQLenPdf::21                6754                       # What read queue length does an incoming req see (Count)
system.loc_mem_ctrl.rdQLenPdf::22                6800                       # What read queue length does an incoming req see (Count)
system.loc_mem_ctrl.rdQLenPdf::23                6862                       # What read queue length does an incoming req see (Count)
system.loc_mem_ctrl.rdQLenPdf::24                6838                       # What read queue length does an incoming req see (Count)
system.loc_mem_ctrl.rdQLenPdf::25                6753                       # What read queue length does an incoming req see (Count)
system.loc_mem_ctrl.rdQLenPdf::26                6795                       # What read queue length does an incoming req see (Count)
system.loc_mem_ctrl.rdQLenPdf::27                6842                       # What read queue length does an incoming req see (Count)
system.loc_mem_ctrl.rdQLenPdf::28                6825                       # What read queue length does an incoming req see (Count)
system.loc_mem_ctrl.rdQLenPdf::29                6834                       # What read queue length does an incoming req see (Count)
system.loc_mem_ctrl.rdQLenPdf::30                6944                       # What read queue length does an incoming req see (Count)
system.loc_mem_ctrl.rdQLenPdf::31                6944                       # What read queue length does an incoming req see (Count)
system.loc_mem_ctrl.rdQLenPdf::32                6957                       # What read queue length does an incoming req see (Count)
system.loc_mem_ctrl.rdQLenPdf::33                6964                       # What read queue length does an incoming req see (Count)
system.loc_mem_ctrl.rdQLenPdf::34                6971                       # What read queue length does an incoming req see (Count)
system.loc_mem_ctrl.rdQLenPdf::35                7026                       # What read queue length does an incoming req see (Count)
system.loc_mem_ctrl.rdQLenPdf::36                6990                       # What read queue length does an incoming req see (Count)
system.loc_mem_ctrl.rdQLenPdf::37                7050                       # What read queue length does an incoming req see (Count)
system.loc_mem_ctrl.rdQLenPdf::38                7094                       # What read queue length does an incoming req see (Count)
system.loc_mem_ctrl.rdQLenPdf::39                6952                       # What read queue length does an incoming req see (Count)
system.loc_mem_ctrl.rdQLenPdf::40               10945                       # What read queue length does an incoming req see (Count)
system.loc_mem_ctrl.rdQLenPdf::41               12635                       # What read queue length does an incoming req see (Count)
system.loc_mem_ctrl.rdQLenPdf::42               12035                       # What read queue length does an incoming req see (Count)
system.loc_mem_ctrl.rdQLenPdf::43               12219                       # What read queue length does an incoming req see (Count)
system.loc_mem_ctrl.rdQLenPdf::44               12925                       # What read queue length does an incoming req see (Count)
system.loc_mem_ctrl.rdQLenPdf::45               12858                       # What read queue length does an incoming req see (Count)
system.loc_mem_ctrl.rdQLenPdf::46               13410                       # What read queue length does an incoming req see (Count)
system.loc_mem_ctrl.rdQLenPdf::47               13649                       # What read queue length does an incoming req see (Count)
system.loc_mem_ctrl.rdQLenPdf::48               13815                       # What read queue length does an incoming req see (Count)
system.loc_mem_ctrl.rdQLenPdf::49               13956                       # What read queue length does an incoming req see (Count)
system.loc_mem_ctrl.rdQLenPdf::50               14170                       # What read queue length does an incoming req see (Count)
system.loc_mem_ctrl.rdQLenPdf::51               14578                       # What read queue length does an incoming req see (Count)
system.loc_mem_ctrl.rdQLenPdf::52               15078                       # What read queue length does an incoming req see (Count)
system.loc_mem_ctrl.rdQLenPdf::53               15360                       # What read queue length does an incoming req see (Count)
system.loc_mem_ctrl.rdQLenPdf::54               15808                       # What read queue length does an incoming req see (Count)
system.loc_mem_ctrl.rdQLenPdf::55               16334                       # What read queue length does an incoming req see (Count)
system.loc_mem_ctrl.rdQLenPdf::56               16920                       # What read queue length does an incoming req see (Count)
system.loc_mem_ctrl.rdQLenPdf::57               17398                       # What read queue length does an incoming req see (Count)
system.loc_mem_ctrl.rdQLenPdf::58               18081                       # What read queue length does an incoming req see (Count)
system.loc_mem_ctrl.rdQLenPdf::59               19031                       # What read queue length does an incoming req see (Count)
system.loc_mem_ctrl.rdQLenPdf::60               19871                       # What read queue length does an incoming req see (Count)
system.loc_mem_ctrl.rdQLenPdf::61               20768                       # What read queue length does an incoming req see (Count)
system.loc_mem_ctrl.rdQLenPdf::62               29650                       # What read queue length does an incoming req see (Count)
system.loc_mem_ctrl.rdQLenPdf::63               32681                       # What read queue length does an incoming req see (Count)
system.loc_mem_ctrl.rdQLenPdf::64               33984                       # What read queue length does an incoming req see (Count)
system.loc_mem_ctrl.rdQLenPdf::65               36797                       # What read queue length does an incoming req see (Count)
system.loc_mem_ctrl.rdQLenPdf::66               36860                       # What read queue length does an incoming req see (Count)
system.loc_mem_ctrl.rdQLenPdf::67               40721                       # What read queue length does an incoming req see (Count)
system.loc_mem_ctrl.rdQLenPdf::68               43277                       # What read queue length does an incoming req see (Count)
system.loc_mem_ctrl.rdQLenPdf::69               46448                       # What read queue length does an incoming req see (Count)
system.loc_mem_ctrl.rdQLenPdf::70               50092                       # What read queue length does an incoming req see (Count)
system.loc_mem_ctrl.rdQLenPdf::71               52919                       # What read queue length does an incoming req see (Count)
system.loc_mem_ctrl.rdQLenPdf::72               56311                       # What read queue length does an incoming req see (Count)
system.loc_mem_ctrl.rdQLenPdf::73               58923                       # What read queue length does an incoming req see (Count)
system.loc_mem_ctrl.rdQLenPdf::74               61813                       # What read queue length does an incoming req see (Count)
system.loc_mem_ctrl.rdQLenPdf::75               64155                       # What read queue length does an incoming req see (Count)
system.loc_mem_ctrl.rdQLenPdf::76               66950                       # What read queue length does an incoming req see (Count)
system.loc_mem_ctrl.rdQLenPdf::77               68811                       # What read queue length does an incoming req see (Count)
system.loc_mem_ctrl.rdQLenPdf::78               70916                       # What read queue length does an incoming req see (Count)
system.loc_mem_ctrl.rdQLenPdf::79               72313                       # What read queue length does an incoming req see (Count)
system.loc_mem_ctrl.rdQLenPdf::80               74100                       # What read queue length does an incoming req see (Count)
system.loc_mem_ctrl.rdQLenPdf::81               75037                       # What read queue length does an incoming req see (Count)
system.loc_mem_ctrl.rdQLenPdf::82               76242                       # What read queue length does an incoming req see (Count)
system.loc_mem_ctrl.rdQLenPdf::83               76422                       # What read queue length does an incoming req see (Count)
system.loc_mem_ctrl.rdQLenPdf::84               77307                       # What read queue length does an incoming req see (Count)
system.loc_mem_ctrl.rdQLenPdf::85               77564                       # What read queue length does an incoming req see (Count)
system.loc_mem_ctrl.rdQLenPdf::86               77629                       # What read queue length does an incoming req see (Count)
system.loc_mem_ctrl.rdQLenPdf::87               77715                       # What read queue length does an incoming req see (Count)
system.loc_mem_ctrl.rdQLenPdf::88               77523                       # What read queue length does an incoming req see (Count)
system.loc_mem_ctrl.rdQLenPdf::89               77308                       # What read queue length does an incoming req see (Count)
system.loc_mem_ctrl.rdQLenPdf::90               76363                       # What read queue length does an incoming req see (Count)
system.loc_mem_ctrl.rdQLenPdf::91               76205                       # What read queue length does an incoming req see (Count)
system.loc_mem_ctrl.rdQLenPdf::92               75927                       # What read queue length does an incoming req see (Count)
system.loc_mem_ctrl.rdQLenPdf::93               75395                       # What read queue length does an incoming req see (Count)
system.loc_mem_ctrl.rdQLenPdf::94               75190                       # What read queue length does an incoming req see (Count)
system.loc_mem_ctrl.rdQLenPdf::95               74346                       # What read queue length does an incoming req see (Count)
system.loc_mem_ctrl.rdQLenPdf::96               73648                       # What read queue length does an incoming req see (Count)
system.loc_mem_ctrl.rdQLenPdf::97               73073                       # What read queue length does an incoming req see (Count)
system.loc_mem_ctrl.rdQLenPdf::98               72480                       # What read queue length does an incoming req see (Count)
system.loc_mem_ctrl.rdQLenPdf::99               72170                       # What read queue length does an incoming req see (Count)
system.loc_mem_ctrl.rdQLenPdf::100              71411                       # What read queue length does an incoming req see (Count)
system.loc_mem_ctrl.rdQLenPdf::101              70650                       # What read queue length does an incoming req see (Count)
system.loc_mem_ctrl.rdQLenPdf::102              69021                       # What read queue length does an incoming req see (Count)
system.loc_mem_ctrl.rdQLenPdf::103              64078                       # What read queue length does an incoming req see (Count)
system.loc_mem_ctrl.rdQLenPdf::104              48669                       # What read queue length does an incoming req see (Count)
system.loc_mem_ctrl.rdQLenPdf::105              27432                       # What read queue length does an incoming req see (Count)
system.loc_mem_ctrl.rdQLenPdf::106              11593                       # What read queue length does an incoming req see (Count)
system.loc_mem_ctrl.rdQLenPdf::107              10073                       # What read queue length does an incoming req see (Count)
system.loc_mem_ctrl.rdQLenPdf::108               9106                       # What read queue length does an incoming req see (Count)
system.loc_mem_ctrl.rdQLenPdf::109               8871                       # What read queue length does an incoming req see (Count)
system.loc_mem_ctrl.rdQLenPdf::110               8688                       # What read queue length does an incoming req see (Count)
system.loc_mem_ctrl.rdQLenPdf::111               8565                       # What read queue length does an incoming req see (Count)
system.loc_mem_ctrl.rdQLenPdf::112               8163                       # What read queue length does an incoming req see (Count)
system.loc_mem_ctrl.rdQLenPdf::113               8080                       # What read queue length does an incoming req see (Count)
system.loc_mem_ctrl.rdQLenPdf::114               7725                       # What read queue length does an incoming req see (Count)
system.loc_mem_ctrl.rdQLenPdf::115               7628                       # What read queue length does an incoming req see (Count)
system.loc_mem_ctrl.rdQLenPdf::116               7513                       # What read queue length does an incoming req see (Count)
system.loc_mem_ctrl.rdQLenPdf::117               7483                       # What read queue length does an incoming req see (Count)
system.loc_mem_ctrl.rdQLenPdf::118               7120                       # What read queue length does an incoming req see (Count)
system.loc_mem_ctrl.rdQLenPdf::119               6969                       # What read queue length does an incoming req see (Count)
system.loc_mem_ctrl.rdQLenPdf::120               6659                       # What read queue length does an incoming req see (Count)
system.loc_mem_ctrl.rdQLenPdf::121               6680                       # What read queue length does an incoming req see (Count)
system.loc_mem_ctrl.rdQLenPdf::122               6330                       # What read queue length does an incoming req see (Count)
system.loc_mem_ctrl.rdQLenPdf::123               6237                       # What read queue length does an incoming req see (Count)
system.loc_mem_ctrl.rdQLenPdf::124               6040                       # What read queue length does an incoming req see (Count)
system.loc_mem_ctrl.rdQLenPdf::125               5818                       # What read queue length does an incoming req see (Count)
system.loc_mem_ctrl.rdQLenPdf::126               5299                       # What read queue length does an incoming req see (Count)
system.loc_mem_ctrl.rdQLenPdf::127               4515                       # What read queue length does an incoming req see (Count)
system.loc_mem_ctrl.wrQLenPdf::0                 1827                       # What write queue length does an incoming req see (Count)
system.loc_mem_ctrl.wrQLenPdf::1                 2501                       # What write queue length does an incoming req see (Count)
system.loc_mem_ctrl.wrQLenPdf::2                 2872                       # What write queue length does an incoming req see (Count)
system.loc_mem_ctrl.wrQLenPdf::3                 3437                       # What write queue length does an incoming req see (Count)
system.loc_mem_ctrl.wrQLenPdf::4                 3807                       # What write queue length does an incoming req see (Count)
system.loc_mem_ctrl.wrQLenPdf::5                 4301                       # What write queue length does an incoming req see (Count)
system.loc_mem_ctrl.wrQLenPdf::6                 4682                       # What write queue length does an incoming req see (Count)
system.loc_mem_ctrl.wrQLenPdf::7                 5062                       # What write queue length does an incoming req see (Count)
system.loc_mem_ctrl.wrQLenPdf::8                 5654                       # What write queue length does an incoming req see (Count)
system.loc_mem_ctrl.wrQLenPdf::9                 6260                       # What write queue length does an incoming req see (Count)
system.loc_mem_ctrl.wrQLenPdf::10                7124                       # What write queue length does an incoming req see (Count)
system.loc_mem_ctrl.wrQLenPdf::11                7868                       # What write queue length does an incoming req see (Count)
system.loc_mem_ctrl.wrQLenPdf::12                8811                       # What write queue length does an incoming req see (Count)
system.loc_mem_ctrl.wrQLenPdf::13                9604                       # What write queue length does an incoming req see (Count)
system.loc_mem_ctrl.wrQLenPdf::14               10465                       # What write queue length does an incoming req see (Count)
system.loc_mem_ctrl.wrQLenPdf::15               11030                       # What write queue length does an incoming req see (Count)
system.loc_mem_ctrl.wrQLenPdf::16               11646                       # What write queue length does an incoming req see (Count)
system.loc_mem_ctrl.wrQLenPdf::17               12056                       # What write queue length does an incoming req see (Count)
system.loc_mem_ctrl.wrQLenPdf::18               12361                       # What write queue length does an incoming req see (Count)
system.loc_mem_ctrl.wrQLenPdf::19               12257                       # What write queue length does an incoming req see (Count)
system.loc_mem_ctrl.wrQLenPdf::20               12315                       # What write queue length does an incoming req see (Count)
system.loc_mem_ctrl.wrQLenPdf::21               12051                       # What write queue length does an incoming req see (Count)
system.loc_mem_ctrl.wrQLenPdf::22               12052                       # What write queue length does an incoming req see (Count)
system.loc_mem_ctrl.wrQLenPdf::23               11941                       # What write queue length does an incoming req see (Count)
system.loc_mem_ctrl.wrQLenPdf::24               11826                       # What write queue length does an incoming req see (Count)
system.loc_mem_ctrl.wrQLenPdf::25               11698                       # What write queue length does an incoming req see (Count)
system.loc_mem_ctrl.wrQLenPdf::26               11719                       # What write queue length does an incoming req see (Count)
system.loc_mem_ctrl.wrQLenPdf::27               11495                       # What write queue length does an incoming req see (Count)
system.loc_mem_ctrl.wrQLenPdf::28               11575                       # What write queue length does an incoming req see (Count)
system.loc_mem_ctrl.wrQLenPdf::29               11424                       # What write queue length does an incoming req see (Count)
system.loc_mem_ctrl.wrQLenPdf::30               11484                       # What write queue length does an incoming req see (Count)
[...]
system.loc_mem_ctrl.dram_2.perBankRdBursts::3       110139                       # Per bank write bursts (Count)
system.loc_mem_ctrl.dram_2.perBankRdBursts::4       110460                       # Per bank write bursts (Count)
system.loc_mem_ctrl.dram_2.perBankRdBursts::5       110362                       # Per bank write bursts (Count)
system.loc_mem_ctrl.dram_2.perBankRdBursts::6       110234                       # Per bank write bursts (Count)
system.loc_mem_ctrl.dram_2.perBankRdBursts::7       109688                       # Per bank write bursts (Count)
system.loc_mem_ctrl.dram_2.perBankRdBursts::8       110262                       # Per bank write bursts (Count)
system.loc_mem_ctrl.dram_2.perBankRdBursts::9       109694                       # Per bank write bursts (Count)
system.loc_mem_ctrl.dram_2.perBankRdBursts::10       109990                       # Per bank write bursts (Count)
system.loc_mem_ctrl.dram_2.perBankRdBursts::11       110242                       # Per bank write bursts (Count)
system.loc_mem_ctrl.dram_2.perBankRdBursts::12       110748                       # Per bank write bursts (Count)
system.loc_mem_ctrl.dram_2.perBankRdBursts::13       110356                       # Per bank write bursts (Count)
system.loc_mem_ctrl.dram_2.perBankRdBursts::14       110356                       # Per bank write bursts (Count)
system.loc_mem_ctrl.dram_2.perBankRdBursts::15       111184                       # Per bank write bursts (Count)
system.loc_mem_ctrl.dram_2.perBankWrBursts::0       109944                       # Per bank write bursts (Count)
system.loc_mem_ctrl.dram_2.perBankWrBursts::1       110594                       # Per bank write bursts (Count)
system.loc_mem_ctrl.dram_2.perBankWrBursts::2       110890                       # Per bank write bursts (Count)
system.loc_mem_ctrl.dram_2.perBankWrBursts::3       110130                       # Per bank write bursts (Count)
system.loc_mem_ctrl.dram_2.perBankWrBursts::4       110450                       # Per bank write bursts (Count)
system.loc_mem_ctrl.dram_2.perBankWrBursts::5       110354                       # Per bank write bursts (Count)
system.loc_mem_ctrl.dram_2.perBankWrBursts::6       110228                       # Per bank write bursts (Count)
system.loc_mem_ctrl.dram_2.perBankWrBursts::7       109686                       # Per bank write bursts (Count)
system.loc_mem_ctrl.dram_2.perBankWrBursts::8       110258                       # Per bank write bursts (Count)
system.loc_mem_ctrl.dram_2.perBankWrBursts::9       109684                       # Per bank write bursts (Count)
system.loc_mem_ctrl.dram_2.perBankWrBursts::10       109984                       # Per bank write bursts (Count)
system.loc_mem_ctrl.dram_2.perBankWrBursts::11       110236                       # Per bank write bursts (Count)
system.loc_mem_ctrl.dram_2.perBankWrBursts::12       110740                       # Per bank write bursts (Count)
system.loc_mem_ctrl.dram_2.perBankWrBursts::13       110352                       # Per bank write bursts (Count)
system.loc_mem_ctrl.dram_2.perBankWrBursts::14       110346                       # Per bank write bursts (Count)
system.loc_mem_ctrl.dram_2.perBankWrBursts::15       111174                       # Per bank write bursts (Count)
system.loc_mem_ctrl.dram_2.totQLat       374708150498                       # Total ticks spent queuing (Tick)
system.loc_mem_ctrl.dram_2.totBusLat       3530310000                       # Total ticks spent in databus transfers (Tick)
system.loc_mem_ctrl.dram_2.totMemAccLat  410011250498                       # Total ticks spent from burst creation until serviced by the DRAM (Tick)
system.loc_mem_ctrl.dram_2.avgQLat          212280.59                       # Average queueing delay per DRAM burst ((Tick/Count))
system.loc_mem_ctrl.dram_2.avgBusLat          2000.00                       # Average bus latency per DRAM burst ((Tick/Count))
system.loc_mem_ctrl.dram_2.avgMemAccLat     232280.59                       # Average memory access latency per DRAM burst ((Tick/Count))
system.loc_mem_ctrl.dram_2.readRowHits         881525                       # Number of row buffer hits during reads (Count)
system.loc_mem_ctrl.dram_2.writeRowHits        881481                       # Number of row buffer hits during writes (Count)
system.loc_mem_ctrl.dram_2.readRowHitRate        49.94                       # Row buffer hit rate for reads (Ratio)
system.loc_mem_ctrl.dram_2.writeRowHitRate        49.94                       # Row buffer hit rate for writes (Ratio)
system.loc_mem_ctrl.dram_2.bytesPerActivate::samples      1767198                       # Bytes accessed per row activation (Byte)
system.loc_mem_ctrl.dram_2.bytesPerActivate::mean    63.924092                       # Bytes accessed per row activation (Byte)
system.loc_mem_ctrl.dram_2.bytesPerActivate::gmean    63.894079                       # Bytes accessed per row activation (Byte)
system.loc_mem_ctrl.dram_2.bytesPerActivate::stdev     1.590932                       # Bytes accessed per row activation (Byte)
system.loc_mem_ctrl.dram_2.bytesPerActivate::32-47         4254      0.24%      0.24% # Bytes accessed per row activation (Byte)
system.loc_mem_ctrl.dram_2.bytesPerActivate::64-79      1762913     99.76%    100.00% # Bytes accessed per row activation (Byte)
system.loc_mem_ctrl.dram_2.bytesPerActivate::128-143           31      0.00%    100.00% # Bytes accessed per row activation (Byte)
system.loc_mem_ctrl.dram_2.bytesPerActivate::total      1767198                       # Bytes accessed per row activation (Byte)
system.loc_mem_ctrl.dram_2.bytesRead         56484960                       # Total bytes read (Byte)
system.loc_mem_ctrl.dram_2.bytesWritten      56481600                       # Total bytes written (Byte)
system.loc_mem_ctrl.dram_2.avgRdBW        5648.496000                       # Average DRAM read bandwidth in MiBytes/s ((Byte/Second))
system.loc_mem_ctrl.dram_2.avgWrBW        5648.160000                       # Average DRAM write bandwidth in MiBytes/s ((Byte/Second))
system.loc_mem_ctrl.dram_2.peakBW            16000.00                       # Theoretical peak bandwidth in MiByte/s ((Byte/Second))
system.loc_mem_ctrl.dram_2.busUtil              70.60                       # Data bus utilization in percentage (Ratio)
system.loc_mem_ctrl.dram_2.busUtilRead          35.30                       # Data bus utilization in percentage for reads (Ratio)
system.loc_mem_ctrl.dram_2.busUtilWrite         35.30                       # Data bus utilization in percentage for writes (Ratio)
system.loc_mem_ctrl.dram_2.pageHitRate          49.94                       # Row buffer hit rate, read and write combined (Ratio)
system.loc_mem_ctrl.dram_2.power_state.pwrStateResidencyTicks::UNDEFINED  10000000000                       # Cumulative time (in ticks) in various power states (Tick)
system.loc_mem_ctrl.dram_2.rank0.actEnergy            0                       # Energy for activate commands per rank (pJ) (Joule)
system.loc_mem_ctrl.dram_2.rank0.preEnergy            0                       # Energy for precharge commands per rank (pJ) (Joule)
system.loc_mem_ctrl.dram_2.rank0.readEnergy            0                       # Energy for read commands per rank (pJ) (Joule)
system.loc_mem_ctrl.dram_2.rank0.writeEnergy            0                       # Energy for write commands per rank (pJ) (Joule)
system.loc_mem_ctrl.dram_2.rank0.refreshEnergy            0                       # Energy for refresh commands per rank (pJ) (Joule)
system.loc_mem_ctrl.dram_2.rank0.actBackEnergy            0                       # Energy for active background per rank (pJ) (Joule)
system.loc_mem_ctrl.dram_2.rank0.preBackEnergy            0                       # Energy for precharge background per rank (pJ) (Joule)
system.loc_mem_ctrl.dram_2.rank0.actPowerDownEnergy            0                       # Energy for active power-down per rank (pJ) (Joule)
system.loc_mem_ctrl.dram_2.rank0.prePowerDownEnergy            0                       # Energy for precharge power-down per rank (pJ) (Joule)
system.loc_mem_ctrl.dram_2.rank0.selfRefreshEnergy            0                       # Energy for self refresh per rank (pJ) (Joule)
system.loc_mem_ctrl.dram_2.rank0.totalEnergy            0                       # Total energy per rank (pJ) (Joule)
system.loc_mem_ctrl.dram_2.rank0.averagePower            0                       # Core power per rank (mW) (Watt)
system.loc_mem_ctrl.dram_2.rank0.totalIdleTime            0                       # Total Idle time Per DRAM Rank (Tick)
system.loc_mem_ctrl.dram_2.rank0.pwrStateTime::IDLE     77811436                       # Time in different power states (Tick)
system.loc_mem_ctrl.dram_2.rank0.pwrStateTime::REF    566060000                       # Time in different power states (Tick)
system.loc_mem_ctrl.dram_2.rank0.pwrStateTime::SREF            0                       # Time in different power states (Tick)
system.loc_mem_ctrl.dram_2.rank0.pwrStateTime::PRE_PDN            0                       # Time in different power states (Tick)
system.loc_mem_ctrl.dram_2.rank0.pwrStateTime::ACT   9356128564                       # Time in different power states (Tick)
system.loc_mem_ctrl.dram_2.rank0.pwrStateTime::ACT_PDN            0                       # Time in different power states (Tick)
system.loc_mem_ctrl.power_state.pwrStateResidencyTicks::UNDEFINED  10000000000                       # Cumulative time (in ticks) in various power states (Tick)
system.mem_ctrl.bytesRead::generator         75011008                       # Number of bytes read from this memory (Byte)
system.mem_ctrl.bytesRead::total             75011008                       # Number of bytes read from this memory (Byte)
system.mem_ctrl.bytesWritten::generator      38108032                       # Number of bytes written to this memory (Byte)
system.mem_ctrl.bytesWritten::total          38108032                       # Number of bytes written to this memory (Byte)
system.mem_ctrl.numReads::generator           1172047                       # Number of read requests responded to by this memory (Count)
system.mem_ctrl.numReads::total               1172047                       # Number of read requests responded to by this memory (Count)
system.mem_ctrl.numWrites::generator           595438                       # Number of write requests responded to by this memory (Count)
system.mem_ctrl.numWrites::total               595438                       # Number of write requests responded to by this memory (Count)
system.mem_ctrl.bwRead::generator          7501100800                       # Total read bandwidth from this memory ((Byte/Second))
system.mem_ctrl.bwRead::total              7501100800                       # Total read bandwidth from this memory ((Byte/Second))
system.mem_ctrl.bwWrite::generator         3810803200                       # Write bandwidth from this memory ((Byte/Second))
system.mem_ctrl.bwWrite::total             3810803200                       # Write bandwidth from this memory ((Byte/Second))
system.mem_ctrl.bwTotal::generator        11311904000                       # Total bandwidth to/from this memory ((Byte/Second))
system.mem_ctrl.bwTotal::total            11311904000                       # Total bandwidth to/from this memory ((Byte/Second))
system.mem_ctrl.readReqs                      1172222                       # Number of read requests accepted (Count)
system.mem_ctrl.writeReqs                      595438                       # Number of write requests accepted (Count)
system.mem_ctrl.servicedByWrQ                       2                       # Number of controller read bursts serviced by the write queue (Count)
system.mem_ctrl.mergedWrBursts                      0                       # Number of controller write bursts merged with an existing one (Count)
system.mem_ctrl.numRdRetry                     994956                       # Number of times read queue was full causing retry (Count)
system.mem_ctrl.numWrRetry                     505191                       # Number of times write queue was full causing retry (Count)
system.mem_ctrl.readPktSize::0                      0                       # Read request sizes (log2) (Count)
system.mem_ctrl.readPktSize::1                      0                       # Read request sizes (log2) (Count)
system.mem_ctrl.readPktSize::2                      0                       # Read request sizes (log2) (Count)
system.mem_ctrl.readPktSize::3                      0                       # Read request sizes (log2) (Count)
system.mem_ctrl.readPktSize::4                      0                       # Read request sizes (log2) (Count)
system.mem_ctrl.readPktSize::5                      0                       # Read request sizes (log2) (Count)
system.mem_ctrl.readPktSize::6                1172222                       # Read request sizes (log2) (Count)
system.mem_ctrl.writePktSize::0                     0                       # Write request sizes (log2) (Count)
system.mem_ctrl.writePktSize::1                     0                       # Write request sizes (log2) (Count)
system.mem_ctrl.writePktSize::2                     0                       # Write request sizes (log2) (Count)
system.mem_ctrl.writePktSize::3                     0                       # Write request sizes (log2) (Count)
system.mem_ctrl.writePktSize::4                     0                       # Write request sizes (log2) (Count)
system.mem_ctrl.writePktSize::5                     0                       # Write request sizes (log2) (Count)
system.mem_ctrl.writePktSize::6                595438                       # Write request sizes (log2) (Count)
system.mem_ctrl.bytesReadWrQ                      128                       # Total number of bytes read from write queue (Byte)
system.mem_ctrl.bytesReadSys                 75022208                       # Total read bytes from the system interface side (Byte)
system.mem_ctrl.bytesWrittenSys              38108032                       # Total written bytes from the system interface side (Byte)
system.mem_ctrl.avgRdBWSys               7502220800.00000000                       # Average system read bandwidth in Byte/s ((Byte/Second))
system.mem_ctrl.avgWrBWSys               3810803200.00000000                       # Average system write bandwidth in Byte/s ((Byte/Second))
system.mem_ctrl.totGap                   18446603486466904064                       # Total gap between requests (Tick)
system.mem_ctrl.avgGap                   10435606104379.18                       # Average gap between requests ((Tick/Count))
system.mem_ctrl.avgORBLen                    254.0367                       # Average ORB length ((Count/Tick))
system.mem_ctrl.avgLocRdQLenStrt               131.66                       # Average local read queue length ((Count/Tick))
system.mem_ctrl.avgLocWrQLenStrt                31.59                       # Average local write queue length ((Count/Tick))
system.mem_ctrl.avgFarRdQLenStrt                12.84                       # Average far read queue length ((Count/Tick))
system.mem_ctrl.avgFarWrQLenStrt                 8.22                       # Average far write queue length ((Count/Tick))
system.mem_ctrl.avgLocRdQLenEnq                132.66                       # Average local read queue length when enqueuing ((Count/Tick))
system.mem_ctrl.avgLocWrQLenEnq                 84.59                       # Average local write queue length when enqueuing ((Count/Tick))
system.mem_ctrl.avgFarRdQLenEnq                 21.79                       # Average far read queue length when enqueuing ((Count/Tick))
system.mem_ctrl.avgFarWrQLenEnq                 35.58                       # Average far write queue length when enqueuing ((Count/Tick))
system.mem_ctrl.numWrBacks                    1767437                       # Total number of write backs from DRAM cache to main memory (Unspecified)
system.mem_ctrl.totNumConf                        376                       # Total number of packets conflicted on DRAM cache (Unspecified)
system.mem_ctrl.totNumORBFull                 1498526                       # Total number of packets ORB full (Unspecified)
system.mem_ctrl.totNumCRBFull                       0                       # Total number of packets conflicted yet couldn't enter confBuffer (Unspecified)
system.mem_ctrl.maxNumConf                          2                       # Maximum number of packets conflicted on DRAM cache (Unspecified)
system.mem_ctrl.sentLocRdPort                 1767510                       # stat (Unspecified)
system.mem_ctrl.sentLocWrPort                 1767407                       # stat (Unspecified)
system.mem_ctrl.failedLocRdPort               3966470                       # stat (Unspecified)
system.mem_ctrl.failedLocWrPort               4162140                       # stat (Unspecified)
system.mem_ctrl.recvdRdPort                         0                       # stat (Unspecified)
system.mem_ctrl.sentFarRdPort                 1172077                       # stat (Unspecified)
system.mem_ctrl.sentFarWrPort                 1767437                       # stat (Unspecified)
system.mem_ctrl.failedFarRdPort                534095                       # stat (Unspecified)
system.mem_ctrl.failedFarWrPort                735800                       # stat (Unspecified)
system.mem_ctrl.totPktsServiceTime         2506403842                       # stat (Unspecified)
system.mem_ctrl.totPktsORBTime             2506110715                       # stat (Unspecified)
system.mem_ctrl.totTimeFarRdtoSend          147684405                       # stat (Unspecified)
system.mem_ctrl.totTimeFarRdtoRecv          263577572                       # stat (Unspecified)
system.mem_ctrl.totTimeFarWrtoSend                  0                       # stat (Unspecified)
system.mem_ctrl.totTimeInLocRead           1453545386                       # stat (Unspecified)
system.mem_ctrl.totTimeInLocWrite           640127440                       # stat (Unspecified)
system.mem_ctrl.totTimeInFarRead            411408607                       # stat (Unspecified)
system.mem_ctrl.numTotHits                          0                       # stat (Unspecified)
system.mem_ctrl.numTotMisses                  1767660                       # stat (Unspecified)
system.mem_ctrl.numColdMisses                  854371                       # stat (Unspecified)
system.mem_ctrl.numHotMisses                   913289                       # stat (Unspecified)
system.mem_ctrl.numRdMissClean                 968674                       # stat (Unspecified)
system.mem_ctrl.numRdMissDirty                 203548                       # stat (Unspecified)
system.mem_ctrl.numRdHit                            0                       # stat (Unspecified)
system.mem_ctrl.numWrMissClean                 491794                       # stat (Unspecified)
system.mem_ctrl.numWrMissDirty                 103644                       # stat (Unspecified)
system.mem_ctrl.numWrHit                            0                       # stat (Unspecified)
system.mem_ctrl.numRdHitDirty                       0                       # stat (Unspecified)
system.mem_ctrl.numRdHitClean                       0                       # stat (Unspecified)
system.mem_ctrl.numWrHitDirty                       0                       # stat (Unspecified)
system.mem_ctrl.numWrHitClean                       0                       # stat (Unspecified)
system.mem_ctrl.power_state.pwrStateResidencyTicks::UNDEFINED  10000000000                       # Cumulative time (in ticks) in various power states (Tick)
system.workload.inst.arm                            0                       # number of arm instructions executed (Count)
system.workload.inst.quiesce                        0                       # number of quiesce instructions executed (Count)

---------- End Simulation Statistics   ----------
