
---------- Begin Simulation Statistics ----------
simSeconds                                          5                       # Number of seconds simulated (Second)
simTicks                                 5000000000000                       # Number of ticks simulated (Tick)
finalTick                                21158553412000                       # Number of ticks from beginning of simulation (restored from checkpoints and never reset) (Tick)
simFreq                                  1000000000000                       # The number of ticks per simulated second ((Tick/Second))
hostSeconds                                  27221.74                       # Real time elapsed on the host (Second)
hostTickRate                                183676703                       # The number of ticks simulated per host second (ticks/s) ((Tick/Second))
hostMemory                                   14501120                       # Number of bytes of host memory used (Byte)
simInsts                                   9218103328                       # Number of instructions simulated (Count)
simOps                                    14921844457                       # Number of ops (including micro ops) simulated (Count)
hostInstRate                                   338630                       # Simulator instruction rate (inst/s) ((Count/Second))
hostOpRate                                     548159                       # Simulator op (including micro ops) rate (op/s) ((Count/Second))
system.atomicCpu0.numCycles                         0                       # Number of cpu cycles simulated (Cycle)
system.atomicCpu0.numWorkItemsStarted               0                       # Number of work items this cpu started (Count)
system.atomicCpu0.numWorkItemsCompleted             0                       # Number of work items this cpu completed (Count)
system.atomicCpu0.exec_context.thread_0.numInsts            0                       # Number of instructions committed (Count)
system.atomicCpu0.exec_context.thread_0.numOps            0                       # Number of ops (including micro ops) committed (Count)
system.atomicCpu0.exec_context.thread_0.numIntAluAccesses            0                       # Number of integer alu accesses (Count)
system.atomicCpu0.exec_context.thread_0.numFpAluAccesses            0                       # Number of float alu accesses (Count)
system.atomicCpu0.exec_context.thread_0.numVecAluAccesses            0                       # Number of vector alu accesses (Count)
system.atomicCpu0.exec_context.thread_0.numCallsReturns            0                       # Number of times a function call or return occured (Count)
system.atomicCpu0.exec_context.thread_0.numCondCtrlInsts            0                       # Number of instructions that are conditional controls (Count)
system.atomicCpu0.exec_context.thread_0.numIntInsts            0                       # Number of integer instructions (Count)
system.atomicCpu0.exec_context.thread_0.numFpInsts            0                       # Number of float instructions (Count)
system.atomicCpu0.exec_context.thread_0.numVecInsts            0                       # Number of vector instructions (Count)
system.atomicCpu0.exec_context.thread_0.numIntRegReads            0                       # Number of times the integer registers were read (Count)
system.atomicCpu0.exec_context.thread_0.numIntRegWrites            0                       # Number of times the integer registers were written (Count)
system.atomicCpu0.exec_context.thread_0.numFpRegReads            0                       # Number of times the floating registers were read (Count)
system.atomicCpu0.exec_context.thread_0.numFpRegWrites            0                       # Number of times the floating registers were written (Count)
system.atomicCpu0.exec_context.thread_0.numVecRegReads            0                       # Number of times the vector registers were read (Count)
system.atomicCpu0.exec_context.thread_0.numVecRegWrites            0                       # Number of times the vector registers were written (Count)
system.atomicCpu0.exec_context.thread_0.numVecPredRegReads            0                       # Number of times the predicate registers were read (Count)
system.atomicCpu0.exec_context.thread_0.numVecPredRegWrites            0                       # Number of times the predicate registers were written (Count)
system.atomicCpu0.exec_context.thread_0.numMiscRegReads            0                       # Number of times the Misc registers were read (Count)
system.atomicCpu0.exec_context.thread_0.numMiscRegWrites            0                       # Number of times the Misc registers were written (Count)
system.atomicCpu0.exec_context.thread_0.numMemRefs            0                       # Number of memory refs (Count)
system.atomicCpu0.exec_context.thread_0.numLoadInsts            0                       # Number of load instructions (Count)
system.atomicCpu0.exec_context.thread_0.numStoreInsts            0                       # Number of store instructions (Count)
system.atomicCpu0.exec_context.thread_0.numIdleCycles            0                       # Number of idle cycles (Cycle)
system.atomicCpu0.exec_context.thread_0.numBusyCycles            0                       # Number of busy cycles (Cycle)
system.atomicCpu0.exec_context.thread_0.notIdleFraction            0                       # Percentage of non-idle cycles (Ratio)
system.atomicCpu0.exec_context.thread_0.idleFraction            1                       # Percentage of idle cycles (Ratio)
system.atomicCpu0.exec_context.thread_0.statExecutedInstType::No_OpClass            0                       # Class of executed instruction. (Count)
system.atomicCpu0.exec_context.thread_0.statExecutedInstType::IntAlu            0                       # Class of executed instruction. (Count)
system.atomicCpu0.exec_context.thread_0.statExecutedInstType::IntMult            0                       # Class of executed instruction. (Count)
system.atomicCpu0.exec_context.thread_0.statExecutedInstType::IntDiv            0                       # Class of executed instruction. (Count)
system.atomicCpu0.exec_context.thread_0.statExecutedInstType::FloatAdd            0                       # Class of executed instruction. (Count)
system.atomicCpu0.exec_context.thread_0.statExecutedInstType::FloatCmp            0                       # Class of executed instruction. (Count)
system.atomicCpu0.exec_context.thread_0.statExecutedInstType::FloatCvt            0                       # Class of executed instruction. (Count)
system.atomicCpu0.exec_context.thread_0.statExecutedInstType::FloatMult            0                       # Class of executed instruction. (Count)
system.atomicCpu0.exec_context.thread_0.statExecutedInstType::FloatMultAcc            0                       # Class of executed instruction. (Count)
system.atomicCpu0.exec_context.thread_0.statExecutedInstType::FloatDiv            0                       # Class of executed instruction. (Count)
system.atomicCpu0.exec_context.thread_0.statExecutedInstType::FloatMisc            0                       # Class of executed instruction. (Count)
system.atomicCpu0.exec_context.thread_0.statExecutedInstType::FloatSqrt            0                       # Class of executed instruction. (Count)
system.atomicCpu0.exec_context.thread_0.statExecutedInstType::SimdAdd            0                       # Class of executed instruction. (Count)
system.atomicCpu0.exec_context.thread_0.statExecutedInstType::SimdAddAcc            0                       # Class of executed instruction. (Count)
system.atomicCpu0.exec_context.thread_0.statExecutedInstType::SimdAlu            0                       # Class of executed instruction. (Count)
system.atomicCpu0.exec_context.thread_0.statExecutedInstType::SimdCmp            0                       # Class of executed instruction. (Count)
system.atomicCpu0.exec_context.thread_0.statExecutedInstType::SimdCvt            0                       # Class of executed instruction. (Count)
system.atomicCpu0.exec_context.thread_0.statExecutedInstType::SimdMisc            0                       # Class of executed instruction. (Count)
system.atomicCpu0.exec_context.thread_0.statExecutedInstType::SimdMult            0                       # Class of executed instruction. (Count)
system.atomicCpu0.exec_context.thread_0.statExecutedInstType::SimdMultAcc            0                       # Class of executed instruction. (Count)
system.atomicCpu0.exec_context.thread_0.statExecutedInstType::SimdShift            0                       # Class of executed instruction. (Count)
system.atomicCpu0.exec_context.thread_0.statExecutedInstType::SimdShiftAcc            0                       # Class of executed instruction. (Count)
system.atomicCpu0.exec_context.thread_0.statExecutedInstType::SimdDiv            0                       # Class of executed instruction. (Count)
system.atomicCpu0.exec_context.thread_0.statExecutedInstType::SimdSqrt            0                       # Class of executed instruction. (Count)
system.atomicCpu0.exec_context.thread_0.statExecutedInstType::SimdFloatAdd            0                       # Class of executed instruction. (Count)
system.atomicCpu0.exec_context.thread_0.statExecutedInstType::SimdFloatAlu            0                       # Class of executed instruction. (Count)
system.atomicCpu0.exec_context.thread_0.statExecutedInstType::SimdFloatCmp            0                       # Class of executed instruction. (Count)
system.atomicCpu0.exec_context.thread_0.statExecutedInstType::SimdFloatCvt            0                       # Class of executed instruction. (Count)
system.atomicCpu0.exec_context.thread_0.statExecutedInstType::SimdFloatDiv            0                       # Class of executed instruction. (Count)
system.atomicCpu0.exec_context.thread_0.statExecutedInstType::SimdFloatMisc            0                       # Class of executed instruction. (Count)
system.atomicCpu0.exec_context.thread_0.statExecutedInstType::SimdFloatMult            0                       # Class of executed instruction. (Count)
system.atomicCpu0.exec_context.thread_0.statExecutedInstType::SimdFloatMultAcc            0                       # Class of executed instruction. (Count)
system.atomicCpu0.exec_context.thread_0.statExecutedInstType::SimdFloatSqrt            0                       # Class of executed instruction. (Count)
system.atomicCpu0.exec_context.thread_0.statExecutedInstType::SimdReduceAdd            0                       # Class of executed instruction. (Count)
system.atomicCpu0.exec_context.thread_0.statExecutedInstType::SimdReduceAlu            0                       # Class of executed instruction. (Count)
system.atomicCpu0.exec_context.thread_0.statExecutedInstType::SimdReduceCmp            0                       # Class of executed instruction. (Count)
system.atomicCpu0.exec_context.thread_0.statExecutedInstType::SimdFloatReduceAdd            0                       # Class of executed instruction. (Count)
system.atomicCpu0.exec_context.thread_0.statExecutedInstType::SimdFloatReduceCmp            0                       # Class of executed instruction. (Count)
system.atomicCpu0.exec_context.thread_0.statExecutedInstType::SimdAes            0                       # Class of executed instruction. (Count)
system.atomicCpu0.exec_context.thread_0.statExecutedInstType::SimdAesMix            0                       # Class of executed instruction. (Count)
system.atomicCpu0.exec_context.thread_0.statExecutedInstType::SimdSha1Hash            0                       # Class of executed instruction. (Count)
system.atomicCpu0.exec_context.thread_0.statExecutedInstType::SimdSha1Hash2            0                       # Class of executed instruction. (Count)
system.atomicCpu0.exec_context.thread_0.statExecutedInstType::SimdSha256Hash            0                       # Class of executed instruction. (Count)
system.atomicCpu0.exec_context.thread_0.statExecutedInstType::SimdSha256Hash2            0                       # Class of executed instruction. (Count)
system.atomicCpu0.exec_context.thread_0.statExecutedInstType::SimdShaSigma2            0                       # Class of executed instruction. (Count)
system.atomicCpu0.exec_context.thread_0.statExecutedInstType::SimdShaSigma3            0                       # Class of executed instruction. (Count)
system.atomicCpu0.exec_context.thread_0.statExecutedInstType::SimdPredAlu            0                       # Class of executed instruction. (Count)
system.atomicCpu0.exec_context.thread_0.statExecutedInstType::MemRead            0                       # Class of executed instruction. (Count)
system.atomicCpu0.exec_context.thread_0.statExecutedInstType::MemWrite            0                       # Class of executed instruction. (Count)
system.atomicCpu0.exec_context.thread_0.statExecutedInstType::FloatMemRead            0                       # Class of executed instruction. (Count)
system.atomicCpu0.exec_context.thread_0.statExecutedInstType::FloatMemWrite            0                       # Class of executed instruction. (Count)
system.atomicCpu0.exec_context.thread_0.statExecutedInstType::IprAccess            0                       # Class of executed instruction. (Count)
system.atomicCpu0.exec_context.thread_0.statExecutedInstType::InstPrefetch            0                       # Class of executed instruction. (Count)
system.atomicCpu0.exec_context.thread_0.statExecutedInstType::total            0                       # Class of executed instruction. (Count)
system.atomicCpu0.mmu.dtb.rdAccesses                0                       # TLB accesses on read requests (Count)
system.atomicCpu0.mmu.dtb.wrAccesses                0                       # TLB accesses on write requests (Count)
system.atomicCpu0.mmu.dtb.rdMisses                  0                       # TLB misses on read requests (Count)
system.atomicCpu0.mmu.dtb.wrMisses                  0                       # TLB misses on write requests (Count)
system.atomicCpu0.mmu.dtb.walker.power_state.pwrStateResidencyTicks::UNDEFINED 21158553412000                       # Cumulative time (in ticks) in various power states (Tick)
system.atomicCpu0.mmu.itb.rdAccesses                0                       # TLB accesses on read requests (Count)
system.atomicCpu0.mmu.itb.wrAccesses                0                       # TLB accesses on write requests (Count)
system.atomicCpu0.mmu.itb.rdMisses                  0                       # TLB misses on read requests (Count)
system.atomicCpu0.mmu.itb.wrMisses                  0                       # TLB misses on write requests (Count)
system.atomicCpu0.mmu.itb.walker.power_state.pwrStateResidencyTicks::UNDEFINED 21158553412000                       # Cumulative time (in ticks) in various power states (Tick)
system.atomicCpu0.power_state.pwrStateResidencyTicks::OFF 21158553412000                       # Cumulative time (in ticks) in various power states (Tick)
system.atomicCpu0.thread_0.numInsts                 0                       # Number of Instructions committed (Count)
system.atomicCpu0.thread_0.numOps                   0                       # Number of Ops committed (Count)
system.atomicCpu0.thread_0.numMemRefs               0                       # Number of Memory References (Count)
system.atomicCpu1.numCycles                         0                       # Number of cpu cycles simulated (Cycle)
system.atomicCpu1.numWorkItemsStarted               0                       # Number of work items this cpu started (Count)
system.atomicCpu1.numWorkItemsCompleted             0                       # Number of work items this cpu completed (Count)
system.atomicCpu1.exec_context.thread_0.numInsts            0                       # Number of instructions committed (Count)
system.atomicCpu1.exec_context.thread_0.numOps            0                       # Number of ops (including micro ops) committed (Count)
system.atomicCpu1.exec_context.thread_0.numIntAluAccesses            0                       # Number of integer alu accesses (Count)
system.atomicCpu1.exec_context.thread_0.numFpAluAccesses            0                       # Number of float alu accesses (Count)
system.atomicCpu1.exec_context.thread_0.numVecAluAccesses            0                       # Number of vector alu accesses (Count)
system.atomicCpu1.exec_context.thread_0.numCallsReturns            0                       # Number of times a function call or return occured (Count)
system.atomicCpu1.exec_context.thread_0.numCondCtrlInsts            0                       # Number of instructions that are conditional controls (Count)
system.atomicCpu1.exec_context.thread_0.numIntInsts            0                       # Number of integer instructions (Count)
system.atomicCpu1.exec_context.thread_0.numFpInsts            0                       # Number of float instructions (Count)
system.atomicCpu1.exec_context.thread_0.numVecInsts            0                       # Number of vector instructions (Count)
system.atomicCpu1.exec_context.thread_0.numIntRegReads            0                       # Number of times the integer registers were read (Count)
system.atomicCpu1.exec_context.thread_0.numIntRegWrites            0                       # Number of times the integer registers were written (Count)
system.atomicCpu1.exec_context.thread_0.numFpRegReads            0                       # Number of times the floating registers were read (Count)
system.atomicCpu1.exec_context.thread_0.numFpRegWrites            0                       # Number of times the floating registers were written (Count)
system.atomicCpu1.exec_context.thread_0.numVecRegReads            0                       # Number of times the vector registers were read (Count)
system.atomicCpu1.exec_context.thread_0.numVecRegWrites            0                       # Number of times the vector registers were written (Count)
system.atomicCpu1.exec_context.thread_0.numVecPredRegReads            0                       # Number of times the predicate registers were read (Count)
system.atomicCpu1.exec_context.thread_0.numVecPredRegWrites            0                       # Number of times the predicate registers were written (Count)
system.atomicCpu1.exec_context.thread_0.numMiscRegReads            0                       # Number of times the Misc registers were read (Count)
system.atomicCpu1.exec_context.thread_0.numMiscRegWrites            0                       # Number of times the Misc registers were written (Count)
system.atomicCpu1.exec_context.thread_0.numMemRefs            0                       # Number of memory refs (Count)
system.atomicCpu1.exec_context.thread_0.numLoadInsts            0                       # Number of load instructions (Count)
system.atomicCpu1.exec_context.thread_0.numStoreInsts            0                       # Number of store instructions (Count)
system.atomicCpu1.exec_context.thread_0.numIdleCycles            0                       # Number of idle cycles (Cycle)
system.atomicCpu1.exec_context.thread_0.numBusyCycles            0                       # Number of busy cycles (Cycle)
system.atomicCpu1.exec_context.thread_0.notIdleFraction            0                       # Percentage of non-idle cycles (Ratio)
system.atomicCpu1.exec_context.thread_0.idleFraction            1                       # Percentage of idle cycles (Ratio)
system.atomicCpu1.exec_context.thread_0.statExecutedInstType::No_OpClass            0                       # Class of executed instruction. (Count)
system.atomicCpu1.exec_context.thread_0.statExecutedInstType::IntAlu            0                       # Class of executed instruction. (Count)
system.atomicCpu1.exec_context.thread_0.statExecutedInstType::IntMult            0                       # Class of executed instruction. (Count)
system.atomicCpu1.exec_context.thread_0.statExecutedInstType::IntDiv            0                       # Class of executed instruction. (Count)
system.atomicCpu1.exec_context.thread_0.statExecutedInstType::FloatAdd            0                       # Class of executed instruction. (Count)
system.atomicCpu1.exec_context.thread_0.statExecutedInstType::FloatCmp            0                       # Class of executed instruction. (Count)
system.atomicCpu1.exec_context.thread_0.statExecutedInstType::FloatCvt            0                       # Class of executed instruction. (Count)
system.atomicCpu1.exec_context.thread_0.statExecutedInstType::FloatMult            0                       # Class of executed instruction. (Count)
system.atomicCpu1.exec_context.thread_0.statExecutedInstType::FloatMultAcc            0                       # Class of executed instruction. (Count)
system.atomicCpu1.exec_context.thread_0.statExecutedInstType::FloatDiv            0                       # Class of executed instruction. (Count)
system.atomicCpu1.exec_context.thread_0.statExecutedInstType::FloatMisc            0                       # Class of executed instruction. (Count)
system.atomicCpu1.exec_context.thread_0.statExecutedInstType::FloatSqrt            0                       # Class of executed instruction. (Count)
system.atomicCpu1.exec_context.thread_0.statExecutedInstType::SimdAdd            0                       # Class of executed instruction. (Count)
system.atomicCpu1.exec_context.thread_0.statExecutedInstType::SimdAddAcc            0                       # Class of executed instruction. (Count)
system.atomicCpu1.exec_context.thread_0.statExecutedInstType::SimdAlu            0                       # Class of executed instruction. (Count)
system.atomicCpu1.exec_context.thread_0.statExecutedInstType::SimdCmp            0                       # Class of executed instruction. (Count)
system.atomicCpu1.exec_context.thread_0.statExecutedInstType::SimdCvt            0                       # Class of executed instruction. (Count)
system.atomicCpu1.exec_context.thread_0.statExecutedInstType::SimdMisc            0                       # Class of executed instruction. (Count)
system.atomicCpu1.exec_context.thread_0.statExecutedInstType::SimdMult            0                       # Class of executed instruction. (Count)
system.atomicCpu1.exec_context.thread_0.statExecutedInstType::SimdMultAcc            0                       # Class of executed instruction. (Count)
system.atomicCpu1.exec_context.thread_0.statExecutedInstType::SimdShift            0                       # Class of executed instruction. (Count)
system.atomicCpu1.exec_context.thread_0.statExecutedInstType::SimdShiftAcc            0                       # Class of executed instruction. (Count)
system.atomicCpu1.exec_context.thread_0.statExecutedInstType::SimdDiv            0                       # Class of executed instruction. (Count)
system.atomicCpu1.exec_context.thread_0.statExecutedInstType::SimdSqrt            0                       # Class of executed instruction. (Count)
system.atomicCpu1.exec_context.thread_0.statExecutedInstType::SimdFloatAdd            0                       # Class of executed instruction. (Count)
system.atomicCpu1.exec_context.thread_0.statExecutedInstType::SimdFloatAlu            0                       # Class of executed instruction. (Count)
system.atomicCpu1.exec_context.thread_0.statExecutedInstType::SimdFloatCmp            0                       # Class of executed instruction. (Count)
system.atomicCpu1.exec_context.thread_0.statExecutedInstType::SimdFloatCvt            0                       # Class of executed instruction. (Count)
system.atomicCpu1.exec_context.thread_0.statExecutedInstType::SimdFloatDiv            0                       # Class of executed instruction. (Count)
system.atomicCpu1.exec_context.thread_0.statExecutedInstType::SimdFloatMisc            0                       # Class of executed instruction. (Count)
system.atomicCpu1.exec_context.thread_0.statExecutedInstType::SimdFloatMult            0                       # Class of executed instruction. (Count)
system.atomicCpu1.exec_context.thread_0.statExecutedInstType::SimdFloatMultAcc            0                       # Class of executed instruction. (Count)
system.atomicCpu1.exec_context.thread_0.statExecutedInstType::SimdFloatSqrt            0                       # Class of executed instruction. (Count)
system.atomicCpu1.exec_context.thread_0.statExecutedInstType::SimdReduceAdd            0                       # Class of executed instruction. (Count)
system.atomicCpu1.exec_context.thread_0.statExecutedInstType::SimdReduceAlu            0                       # Class of executed instruction. (Count)
system.atomicCpu1.exec_context.thread_0.statExecutedInstType::SimdReduceCmp            0                       # Class of executed instruction. (Count)
system.atomicCpu1.exec_context.thread_0.statExecutedInstType::SimdFloatReduceAdd            0                       # Class of executed instruction. (Count)
system.atomicCpu1.exec_context.thread_0.statExecutedInstType::SimdFloatReduceCmp            0                       # Class of executed instruction. (Count)
system.atomicCpu1.exec_context.thread_0.statExecutedInstType::SimdAes            0                       # Class of executed instruction. (Count)
system.atomicCpu1.exec_context.thread_0.statExecutedInstType::SimdAesMix            0                       # Class of executed instruction. (Count)
system.atomicCpu1.exec_context.thread_0.statExecutedInstType::SimdSha1Hash            0                       # Class of executed instruction. (Count)
system.atomicCpu1.exec_context.thread_0.statExecutedInstType::SimdSha1Hash2            0                       # Class of executed instruction. (Count)
system.atomicCpu1.exec_context.thread_0.statExecutedInstType::SimdSha256Hash            0                       # Class of executed instruction. (Count)
system.atomicCpu1.exec_context.thread_0.statExecutedInstType::SimdSha256Hash2            0                       # Class of executed instruction. (Count)
system.atomicCpu1.exec_context.thread_0.statExecutedInstType::SimdShaSigma2            0                       # Class of executed instruction. (Count)
system.atomicCpu1.exec_context.thread_0.statExecutedInstType::SimdShaSigma3            0                       # Class of executed instruction. (Count)
system.atomicCpu1.exec_context.thread_0.statExecutedInstType::SimdPredAlu            0                       # Class of executed instruction. (Count)
system.atomicCpu1.exec_context.thread_0.statExecutedInstType::MemRead            0                       # Class of executed instruction. (Count)
system.atomicCpu1.exec_context.thread_0.statExecutedInstType::MemWrite            0                       # Class of executed instruction. (Count)
system.atomicCpu1.exec_context.thread_0.statExecutedInstType::FloatMemRead            0                       # Class of executed instruction. (Count)
system.atomicCpu1.exec_context.thread_0.statExecutedInstType::FloatMemWrite            0                       # Class of executed instruction. (Count)
system.atomicCpu1.exec_context.thread_0.statExecutedInstType::IprAccess            0                       # Class of executed instruction. (Count)
system.atomicCpu1.exec_context.thread_0.statExecutedInstType::InstPrefetch            0                       # Class of executed instruction. (Count)
system.atomicCpu1.exec_context.thread_0.statExecutedInstType::total            0                       # Class of executed instruction. (Count)
system.atomicCpu1.mmu.dtb.rdAccesses                0                       # TLB accesses on read requests (Count)
system.atomicCpu1.mmu.dtb.wrAccesses                0                       # TLB accesses on write requests (Count)
system.atomicCpu1.mmu.dtb.rdMisses                  0                       # TLB misses on read requests (Count)
system.atomicCpu1.mmu.dtb.wrMisses                  0                       # TLB misses on write requests (Count)
system.atomicCpu1.mmu.dtb.walker.power_state.pwrStateResidencyTicks::UNDEFINED 21158553412000                       # Cumulative time (in ticks) in various power states (Tick)
system.atomicCpu1.mmu.itb.rdAccesses                0                       # TLB accesses on read requests (Count)
system.atomicCpu1.mmu.itb.wrAccesses                0                       # TLB accesses on write requests (Count)
system.atomicCpu1.mmu.itb.rdMisses                  0                       # TLB misses on read requests (Count)
system.atomicCpu1.mmu.itb.wrMisses                  0                       # TLB misses on write requests (Count)
system.atomicCpu1.mmu.itb.walker.power_state.pwrStateResidencyTicks::UNDEFINED 21158553412000                       # Cumulative time (in ticks) in various power states (Tick)
system.atomicCpu1.power_state.pwrStateResidencyTicks::OFF 21158553412000                       # Cumulative time (in ticks) in various power states (Tick)
system.atomicCpu1.thread_0.numInsts                 0                       # Number of Instructions committed (Count)
system.atomicCpu1.thread_0.numOps                   0                       # Number of Ops committed (Count)
system.atomicCpu1.thread_0.numMemRefs               0                       # Number of Memory References (Count)
system.caches.delayHistogram::bucket_size          128                       # delay histogram for all message (Unspecified)
system.caches.delayHistogram::max_bucket         1279                       # delay histogram for all message (Unspecified)
system.caches.delayHistogram::samples       157119060                       # delay histogram for all message (Unspecified)
system.caches.delayHistogram::mean           0.976331                       # delay histogram for all message (Unspecified)
system.caches.delayHistogram::stdev          2.626325                       # delay histogram for all message (Unspecified)
system.caches.delayHistogram             |   157119055    100.00%    100.00% |           0      0.00%    100.00% |           1      0.00%    100.00% |           0      0.00%    100.00% |           1      0.00%    100.00% |           3      0.00%    100.00% |           0      0.00%    100.00% |           0      0.00%    100.00% |           0      0.00%    100.00% |           0      0.00%    100.00% # delay histogram for all message (Unspecified)
system.caches.delayHistogram::total         157119060                       # delay histogram for all message (Unspecified)
system.caches.m_outstandReqHistSeqr::bucket_size            1                       (Unspecified)
system.caches.m_outstandReqHistSeqr::max_bucket            9                       (Unspecified)
system.caches.m_outstandReqHistSeqr::samples  12946263634                       (Unspecified)
system.caches.m_outstandReqHistSeqr::mean            1                       (Unspecified)
system.caches.m_outstandReqHistSeqr::gmean            1                       (Unspecified)
system.caches.m_outstandReqHistSeqr      |           0      0.00%      0.00% | 12946263634    100.00%    100.00% |           0      0.00%    100.00% |           0      0.00%    100.00% |           0      0.00%    100.00% |           0      0.00%    100.00% |           0      0.00%    100.00% |           0      0.00%    100.00% |           0      0.00%    100.00% |           0      0.00%    100.00% (Unspecified)
system.caches.m_outstandReqHistSeqr::total  12946263634                       (Unspecified)
system.caches.m_latencyHistSeqr::bucket_size          512                       (Unspecified)
system.caches.m_latencyHistSeqr::max_bucket         5119                       (Unspecified)
system.caches.m_latencyHistSeqr::samples  12946263633                       (Unspecified)
system.caches.m_latencyHistSeqr::mean        2.086094                       (Unspecified)
system.caches.m_latencyHistSeqr::gmean       1.010818                       (Unspecified)
system.caches.m_latencyHistSeqr::stdev      29.852042                       (Unspecified)
system.caches.m_latencyHistSeqr          | 12929918730     99.87%     99.87% |    15432331      0.12%     99.99% |      423138      0.00%    100.00% |      272258      0.00%    100.00% |      206436      0.00%    100.00% |       10463      0.00%    100.00% |         269      0.00%    100.00% |           7      0.00%    100.00% |           1      0.00%    100.00% |           0      0.00%    100.00% (Unspecified)
system.caches.m_latencyHistSeqr::total    12946263633                       (Unspecified)
system.caches.m_hitLatencyHistSeqr::bucket_size            1                       (Unspecified)
system.caches.m_hitLatencyHistSeqr::max_bucket            9                       (Unspecified)
system.caches.m_hitLatencyHistSeqr::samples  12922236754                       (Unspecified)
system.caches.m_hitLatencyHistSeqr::mean            1                       (Unspecified)
system.caches.m_hitLatencyHistSeqr::gmean            1                       (Unspecified)
system.caches.m_hitLatencyHistSeqr       |           0      0.00%      0.00% | 12922236754    100.00%    100.00% |           0      0.00%    100.00% |           0      0.00%    100.00% |           0      0.00%    100.00% |           0      0.00%    100.00% |           0      0.00%    100.00% |           0      0.00%    100.00% |           0      0.00%    100.00% |           0      0.00%    100.00% (Unspecified)
system.caches.m_hitLatencyHistSeqr::total  12922236754                       (Unspecified)
system.caches.m_missLatencyHistSeqr::bucket_size          512                       (Unspecified)
system.caches.m_missLatencyHistSeqr::max_bucket         5119                       (Unspecified)
system.caches.m_missLatencyHistSeqr::samples     24026879                       (Unspecified)
system.caches.m_missLatencyHistSeqr::mean   586.213659                       (Unspecified)
system.caches.m_missLatencyHistSeqr::gmean   329.572337                       (Unspecified)
system.caches.m_missLatencyHistSeqr::stdev   371.928421                       (Unspecified)
system.caches.m_missLatencyHistSeqr      |     7681976     31.97%     31.97% |    15432331     64.23%     96.20% |      423138      1.76%     97.96% |      272258      1.13%     99.10% |      206436      0.86%     99.96% |       10463      0.04%    100.00% |         269      0.00%    100.00% |           7      0.00%    100.00% |           1      0.00%    100.00% |           0      0.00%    100.00% (Unspecified)
system.caches.m_missLatencyHistSeqr::total     24026879                       (Unspecified)
system.caches.delayVCHist.vnet_0::bucket_size          128                       # delay histogram for vnet_0 (Unspecified)
system.caches.delayVCHist.vnet_0::max_bucket         1279                       # delay histogram for vnet_0 (Unspecified)
system.caches.delayVCHist.vnet_0::samples     70890323                       # delay histogram for vnet_0 (Unspecified)
system.caches.delayVCHist.vnet_0::mean       2.163702                       # delay histogram for vnet_0 (Unspecified)
system.caches.delayVCHist.vnet_0::stdev      3.566157                       # delay histogram for vnet_0 (Unspecified)
system.caches.delayVCHist.vnet_0         |    70890318    100.00%    100.00% |           0      0.00%    100.00% |           1      0.00%    100.00% |           0      0.00%    100.00% |           1      0.00%    100.00% |           3      0.00%    100.00% |           0      0.00%    100.00% |           0      0.00%    100.00% |           0      0.00%    100.00% |           0      0.00%    100.00% # delay histogram for vnet_0 (Unspecified)
system.caches.delayVCHist.vnet_0::total      70890323                       # delay histogram for vnet_0 (Unspecified)
system.caches.delayVCHist.vnet_1::bucket_size            2                       # delay histogram for vnet_1 (Unspecified)
system.caches.delayVCHist.vnet_1::max_bucket           19                       # delay histogram for vnet_1 (Unspecified)
system.caches.delayVCHist.vnet_1::samples     86013228                       # delay histogram for vnet_1 (Unspecified)
system.caches.delayVCHist.vnet_1::mean       0.000171                       # delay histogram for vnet_1 (Unspecified)
system.caches.delayVCHist.vnet_1::stdev      0.031349                       # delay histogram for vnet_1 (Unspecified)
system.caches.delayVCHist.vnet_1         |    86010056    100.00%    100.00% |         990      0.00%    100.00% |         929      0.00%    100.00% |         524      0.00%    100.00% |         725      0.00%    100.00% |           3      0.00%    100.00% |           1      0.00%    100.00% |           0      0.00%    100.00% |           0      0.00%    100.00% |           0      0.00%    100.00% # delay histogram for vnet_1 (Unspecified)
system.caches.delayVCHist.vnet_1::total      86013228                       # delay histogram for vnet_1 (Unspecified)
system.caches.delayVCHist.vnet_2::bucket_size            1                       # delay histogram for vnet_2 (Unspecified)
system.caches.delayVCHist.vnet_2::max_bucket            9                       # delay histogram for vnet_2 (Unspecified)
system.caches.delayVCHist.vnet_2::samples       215509                       # delay histogram for vnet_2 (Unspecified)
system.caches.delayVCHist.vnet_2::mean       0.000213                       # delay histogram for vnet_2 (Unspecified)
system.caches.delayVCHist.vnet_2::stdev      0.020660                       # delay histogram for vnet_2 (Unspecified)
system.caches.delayVCHist.vnet_2         |      215486     99.99%     99.99% |           0      0.00%     99.99% |          23      0.01%    100.00% |           0      0.00%    100.00% |           0      0.00%    100.00% |           0      0.00%    100.00% |           0      0.00%    100.00% |           0      0.00%    100.00% |           0      0.00%    100.00% |           0      0.00%    100.00% # delay histogram for vnet_2 (Unspecified)
system.caches.delayVCHist.vnet_2::total        215509                       # delay histogram for vnet_2 (Unspecified)
system.caches.L1Cache_Controller.Load    |  1287667265     50.01%     50.01% |  1287073996     49.99%    100.00% (Unspecified)
system.caches.L1Cache_Controller.Load::total   2574741261                       (Unspecified)
system.caches.L1Cache_Controller.Ifetch  |   634656349     49.99%     49.99% |   634792704     50.01%    100.00% (Unspecified)
system.caches.L1Cache_Controller.Ifetch::total   1269449053                       (Unspecified)
system.caches.L1Cache_Controller.Store   |   256924226     50.17%     50.17% |   255214501     49.83%    100.00% (Unspecified)
system.caches.L1Cache_Controller.Store::total    512138727                       (Unspecified)
system.caches.L1Cache_Controller.Inv     |       74333     42.88%     42.88% |       99033     57.12%    100.00% (Unspecified)
system.caches.L1Cache_Controller.Inv::total       173366                       (Unspecified)
system.caches.L1Cache_Controller.L1_Replacement |    11996017     50.35%     50.35% |    11830846     49.65%    100.00% (Unspecified)
system.caches.L1Cache_Controller.L1_Replacement::total     23826863                       (Unspecified)
system.caches.L1Cache_Controller.Fwd_GETX |        1246     42.44%     42.44% |        1690     57.56%    100.00% (Unspecified)
system.caches.L1Cache_Controller.Fwd_GETX::total         2936                       (Unspecified)
system.caches.L1Cache_Controller.Fwd_GETS |       34752     88.64%     88.64% |        4455     11.36%    100.00% (Unspecified)
system.caches.L1Cache_Controller.Fwd_GETS::total        39207                       (Unspecified)
system.caches.L1Cache_Controller.Data    |         471     99.37%     99.37% |           3      0.63%    100.00% (Unspecified)
system.caches.L1Cache_Controller.Data::total          474                       (Unspecified)
system.caches.L1Cache_Controller.Data_Exclusive |     4254385     50.01%     50.01% |     4251902     49.99%    100.00% (Unspecified)
system.caches.L1Cache_Controller.Data_Exclusive::total      8506287                       (Unspecified)
system.caches.L1Cache_Controller.DataS_fromL1 |        4455     11.36%     11.36% |       34752     88.64%    100.00% (Unspecified)
system.caches.L1Cache_Controller.DataS_fromL1::total        39207                       (Unspecified)
system.caches.L1Cache_Controller.Data_all_Acks |     7806641     50.54%     50.54% |     7640329     49.46%    100.00% (Unspecified)
system.caches.L1Cache_Controller.Data_all_Acks::total     15446970                       (Unspecified)
system.caches.L1Cache_Controller.Ack     |       33101     97.53%     97.53% |         840      2.47%    100.00% (Unspecified)
system.caches.L1Cache_Controller.Ack::total        33941                       (Unspecified)
system.caches.L1Cache_Controller.Ack_all |       33572     97.55%     97.55% |         843      2.45%    100.00% (Unspecified)
system.caches.L1Cache_Controller.Ack_all::total        34415                       (Unspecified)
system.caches.L1Cache_Controller.WB_Ack  |    11721194     50.17%     50.17% |    11643106     49.83%    100.00% (Unspecified)
system.caches.L1Cache_Controller.WB_Ack::total     23364300                       (Unspecified)
system.caches.L1Cache_Controller.NP.Load |     4265828     50.02%     50.02% |     4262150     49.98%    100.00% (Unspecified)
system.caches.L1Cache_Controller.NP.Load::total      8527978                       (Unspecified)
system.caches.L1Cache_Controller.NP.Ifetch |      248434     60.36%     60.36% |      163162     39.64%    100.00% (Unspecified)
system.caches.L1Cache_Controller.NP.Ifetch::total       411596                       (Unspecified)
system.caches.L1Cache_Controller.NP.Store |     7490459     50.26%     50.26% |     7414238     49.74%    100.00% (Unspecified)
system.caches.L1Cache_Controller.NP.Store::total     14904697                       (Unspecified)
system.caches.L1Cache_Controller.NP.Inv  |        6384     48.15%     48.15% |        6874     51.85%    100.00% (Unspecified)
system.caches.L1Cache_Controller.NP.Inv::total        13258                       (Unspecified)
system.caches.L1Cache_Controller.I.Load  |       15332     24.82%     24.82% |       46432     75.18%    100.00% (Unspecified)
system.caches.L1Cache_Controller.I.Load::total        61764                       (Unspecified)
system.caches.L1Cache_Controller.I.Ifetch |       37734     52.49%     52.49% |       34157     47.51%    100.00% (Unspecified)
system.caches.L1Cache_Controller.I.Ifetch::total        71891                       (Unspecified)
system.caches.L1Cache_Controller.I.Store |        8165     54.41%     54.41% |        6841     45.59%    100.00% (Unspecified)
system.caches.L1Cache_Controller.I.Store::total        15006                       (Unspecified)
system.caches.L1Cache_Controller.I.L1_Replacement |        7586     55.82%     55.82% |        6003     44.18%    100.00% (Unspecified)
system.caches.L1Cache_Controller.I.L1_Replacement::total        13589                       (Unspecified)
system.caches.L1Cache_Controller.S.Load  |   856539683     49.99%     49.99% |   856846344     50.01%    100.00% (Unspecified)
system.caches.L1Cache_Controller.S.Load::total   1713386027                       (Unspecified)
system.caches.L1Cache_Controller.S.Ifetch |   634370181     49.99%     49.99% |   634595385     50.01%    100.00% (Unspecified)
system.caches.L1Cache_Controller.S.Ifetch::total   1268965566                       (Unspecified)
system.caches.L1Cache_Controller.S.Store |       33101     97.51%     97.51% |         846      2.49%    100.00% (Unspecified)
system.caches.L1Cache_Controller.S.Store::total        33947                       (Unspecified)
system.caches.L1Cache_Controller.S.Inv   |       47024     38.36%     38.36% |       75567     61.64%    100.00% (Unspecified)
system.caches.L1Cache_Controller.S.Inv::total       122591                       (Unspecified)
system.caches.L1Cache_Controller.S.L1_Replacement |      267237     59.52%     59.52% |      181737     40.48%    100.00% (Unspecified)
system.caches.L1Cache_Controller.S.L1_Replacement::total       448974                       (Unspecified)
system.caches.L1Cache_Controller.E.Load  |   141335943     50.16%     50.16% |   140439292     49.84%    100.00% (Unspecified)
system.caches.L1Cache_Controller.E.Load::total    281775235                       (Unspecified)
system.caches.L1Cache_Controller.E.Store |     2118261     50.03%     50.03% |     2115958     49.97%    100.00% (Unspecified)
system.caches.L1Cache_Controller.E.Store::total      4234219                       (Unspecified)
system.caches.L1Cache_Controller.E.Inv   |        7032     59.40%     59.40% |        4807     40.60%    100.00% (Unspecified)
system.caches.L1Cache_Controller.E.Inv::total        11839                       (Unspecified)
system.caches.L1Cache_Controller.E.L1_Replacement |     2123813     50.00%     50.00% |     2123513     50.00%    100.00% (Unspecified)
system.caches.L1Cache_Controller.E.L1_Replacement::total      4247326                       (Unspecified)
system.caches.L1Cache_Controller.E.Fwd_GETX |           6      5.56%      5.56% |         102     94.44%    100.00% (Unspecified)
system.caches.L1Cache_Controller.E.Fwd_GETX::total          108                       (Unspecified)
system.caches.L1Cache_Controller.E.Fwd_GETS |        1304     26.70%     26.70% |        3579     73.30%    100.00% (Unspecified)
system.caches.L1Cache_Controller.E.Fwd_GETS::total         4883                       (Unspecified)
system.caches.L1Cache_Controller.M.Load  |   285510479     50.00%     50.00% |   285479778     50.00%    100.00% (Unspecified)
system.caches.L1Cache_Controller.M.Load::total    570990257                       (Unspecified)
system.caches.L1Cache_Controller.M.Store |   247274240     50.16%     50.16% |   245676618     49.84%    100.00% (Unspecified)
system.caches.L1Cache_Controller.M.Store::total    492950858                       (Unspecified)
system.caches.L1Cache_Controller.M.Inv   |       13893     54.12%     54.12% |       11776     45.88%    100.00% (Unspecified)
system.caches.L1Cache_Controller.M.Inv::total        25669                       (Unspecified)
system.caches.L1Cache_Controller.M.L1_Replacement |     9597381     50.20%     50.20% |     9519593     49.80%    100.00% (Unspecified)
system.caches.L1Cache_Controller.M.L1_Replacement::total     19116974                       (Unspecified)
system.caches.L1Cache_Controller.M.Fwd_GETX |        1240     43.85%     43.85% |        1588     56.15%    100.00% (Unspecified)
system.caches.L1Cache_Controller.M.Fwd_GETX::total         2828                       (Unspecified)
system.caches.L1Cache_Controller.M.Fwd_GETS |       33448     97.45%     97.45% |         876      2.55%    100.00% (Unspecified)
system.caches.L1Cache_Controller.M.Fwd_GETS::total        34324                       (Unspecified)
system.caches.L1Cache_Controller.IS.Inv  |           0      0.00%      0.00% |           3    100.00%    100.00% (Unspecified)
system.caches.L1Cache_Controller.IS.Inv::total            3                       (Unspecified)
system.caches.L1Cache_Controller.IS.Data_Exclusive |     4254385     50.01%     50.01% |     4251901     49.99%    100.00% (Unspecified)
system.caches.L1Cache_Controller.IS.Data_Exclusive::total      8506286                       (Unspecified)
system.caches.L1Cache_Controller.IS.DataS_fromL1 |        4455     11.36%     11.36% |       34750     88.64%    100.00% (Unspecified)
system.caches.L1Cache_Controller.IS.DataS_fromL1::total        39205                       (Unspecified)
system.caches.L1Cache_Controller.IS.Data_all_Acks |      308488     58.46%     58.46% |      219247     41.54%    100.00% (Unspecified)
system.caches.L1Cache_Controller.IS.Data_all_Acks::total       527735                       (Unspecified)
system.caches.L1Cache_Controller.IM.Data |         471     99.37%     99.37% |           3      0.63%    100.00% (Unspecified)
system.caches.L1Cache_Controller.IM.Data::total          474                       (Unspecified)
system.caches.L1Cache_Controller.IM.Data_all_Acks |     7498153     50.26%     50.26% |     7421082     49.74%    100.00% (Unspecified)
system.caches.L1Cache_Controller.IM.Data_all_Acks::total     14919235                       (Unspecified)
system.caches.L1Cache_Controller.SM.Inv  |           0      0.00%      0.00% |           6    100.00%    100.00% (Unspecified)
system.caches.L1Cache_Controller.SM.Inv::total            6                       (Unspecified)
system.caches.L1Cache_Controller.SM.Ack  |       33101     97.53%     97.53% |         840      2.47%    100.00% (Unspecified)
system.caches.L1Cache_Controller.SM.Ack::total        33941                       (Unspecified)
system.caches.L1Cache_Controller.SM.Ack_all |       33572     97.55%     97.55% |         843      2.45%    100.00% (Unspecified)
system.caches.L1Cache_Controller.SM.Ack_all::total        34415                       (Unspecified)
system.caches.L1Cache_Controller.IS_I.Data_Exclusive |           0      0.00%      0.00% |           1    100.00%    100.00% (Unspecified)
system.caches.L1Cache_Controller.IS_I.Data_Exclusive::total            1                       (Unspecified)
system.caches.L1Cache_Controller.IS_I.DataS_fromL1 |           0      0.00%      0.00% |           2    100.00%    100.00% (Unspecified)
system.caches.L1Cache_Controller.IS_I.DataS_fromL1::total            2                       (Unspecified)
system.caches.L1Cache_Controller.M_I.WB_Ack |    11721194     50.17%     50.17% |    11643106     49.83%    100.00% (Unspecified)
system.caches.L1Cache_Controller.M_I.WB_Ack::total     23364300                       (Unspecified)
system.caches.Directory_Controller.Fetch     19269087      0.00%      0.00% (Unspecified)
system.caches.Directory_Controller.Data      14983352      0.00%      0.00% (Unspecified)
system.caches.Directory_Controller.Memory_Data     19269116      0.00%      0.00% (Unspecified)
system.caches.Directory_Controller.Memory_Ack     14983352      0.00%      0.00% (Unspecified)
system.caches.Directory_Controller.DMA_READ         2403      0.00%      0.00% (Unspecified)
system.caches.Directory_Controller.CleanReplacement      4154663      0.00%      0.00% (Unspecified)
system.caches.Directory_Controller.I.Fetch     19269087      0.00%      0.00% (Unspecified)
system.caches.Directory_Controller.I.DMA_READ           29      0.00%      0.00% (Unspecified)
system.caches.Directory_Controller.ID.Memory_Data           29      0.00%      0.00% (Unspecified)
system.caches.Directory_Controller.M.Data     14980978      0.00%      0.00% (Unspecified)
system.caches.Directory_Controller.M.DMA_READ         2374      0.00%      0.00% (Unspecified)
system.caches.Directory_Controller.M.CleanReplacement      4154663      0.00%      0.00% (Unspecified)
system.caches.Directory_Controller.IM.Memory_Data     19269087      0.00%      0.00% (Unspecified)
system.caches.Directory_Controller.MI.Memory_Ack     14980978      0.00%      0.00% (Unspecified)
system.caches.Directory_Controller.M_DRD.Data         2374      0.00%      0.00% (Unspecified)
system.caches.Directory_Controller.M_DRDI.Memory_Ack         2374      0.00%      0.00% (Unspecified)
system.caches.DMA_Controller.ReadRequest |        2403    100.00%    100.00% |           0      0.00%    100.00% (Unspecified)
system.caches.DMA_Controller.ReadRequest::total         2403                       (Unspecified)
system.caches.DMA_Controller.Data        |        2403    100.00%    100.00% |           0      0.00%    100.00% (Unspecified)
system.caches.DMA_Controller.Data::total         2403                       (Unspecified)
system.caches.DMA_Controller.READY.ReadRequest |        2403    100.00%    100.00% |           0      0.00%    100.00% (Unspecified)
system.caches.DMA_Controller.READY.ReadRequest::total         2403                       (Unspecified)
system.caches.DMA_Controller.BUSY_RD.Data |        2403    100.00%    100.00% |           0      0.00%    100.00% (Unspecified)
system.caches.DMA_Controller.BUSY_RD.Data::total         2403                       (Unspecified)
system.caches.L2Cache_Controller.L1_GET_INSTR |       45557      9.42%      9.42% |       64151     13.27%     22.69% |       83189     17.20%     39.89% |       31695      6.55%     46.45% |       53126     10.99%     57.43% |       57053     11.80%     69.23% |       69623     14.40%     83.63% |       79144     16.37%    100.00% (Unspecified)
system.caches.L2Cache_Controller.L1_GET_INSTR::total       483538                       (Unspecified)
system.caches.L2Cache_Controller.L1_GETS |     1085152     12.62%     12.62% |     1075935     12.51%     25.13% |     1069242     12.43%     37.56% |     1066750     12.40%     49.96% |     1068311     12.42%     62.38% |     1066864     12.40%     74.78% |     1096662     12.75%     87.53% |     1072260     12.47%    100.00% (Unspecified)
system.caches.L2Cache_Controller.L1_GETS::total      8601176                       (Unspecified)
system.caches.L2Cache_Controller.L1_GETX |     1869173     12.53%     12.53% |     1864319     12.50%     25.02% |     1863279     12.49%     37.51% |     1863275     12.49%     50.00% |     1863294     12.49%     62.49% |     1866934     12.51%     75.00% |     1864266     12.50%     87.50% |     1865248     12.50%    100.00% (Unspecified)
system.caches.L2Cache_Controller.L1_GETX::total     14919788                       (Unspecified)
system.caches.L2Cache_Controller.L1_UPGRADE |        8960     20.61%     20.61% |        4450     10.24%     30.85% |         184      0.42%     31.27% |          99      0.23%     31.50% |         276      0.63%     32.14% |         163      0.37%     32.51% |       29162     67.09%     99.60% |         174      0.40%    100.00% (Unspecified)
system.caches.L2Cache_Controller.L1_UPGRADE::total        43468                       (Unspecified)
system.caches.L2Cache_Controller.L1_PUTX |     2925434     12.52%     12.52% |     2922251     12.51%     25.03% |     2918676     12.49%     37.52% |     2918140     12.49%     50.01% |     2919063     12.49%     62.50% |     2920592     12.50%     75.00% |     2918889     12.49%     87.50% |     2921255     12.50%    100.00% (Unspecified)
system.caches.L2Cache_Controller.L1_PUTX::total     23364300                       (Unspecified)
system.caches.L2Cache_Controller.L2_Replacement |     1869672     12.50%     12.50% |     1869341     12.50%     25.00% |     1869817     12.50%     37.50% |     1869485     12.50%     50.00% |     1869640     12.50%     62.50% |     1869564     12.50%     75.00% |     1869515     12.50%     87.50% |     1869541     12.50%    100.00% (Unspecified)
system.caches.L2Cache_Controller.L2_Replacement::total     14956575                       (Unspecified)
system.caches.L2Cache_Controller.L2_Replacement_clean |      523758     12.53%     12.53% |      523683     12.53%     25.06% |      521416     12.48%     37.54% |      521210     12.47%     50.01% |      521837     12.49%     62.50% |      522564     12.50%     75.00% |      521646     12.48%     87.49% |      522952     12.51%    100.00% (Unspecified)
system.caches.L2Cache_Controller.L2_Replacement_clean::total      4179066                       (Unspecified)
system.caches.L2Cache_Controller.Mem_Data |     2410113     12.51%     12.51% |     2409705     12.51%     25.01% |     2407914     12.50%     37.51% |     2407376     12.49%     50.00% |     2408157     12.50%     62.50% |     2408808     12.50%     75.00% |     2407841     12.50%     87.50% |     2409173     12.50%    100.00% (Unspecified)
system.caches.L2Cache_Controller.Mem_Data::total     19269087                       (Unspecified)
system.caches.L2Cache_Controller.Mem_Ack |     2393729     12.51%     12.51% |     2393321     12.51%     25.01% |     2391530     12.50%     37.51% |     2390992     12.49%     50.00% |     2391773     12.50%     62.50% |     2392424     12.50%     75.00% |     2391457     12.50%     87.50% |     2392789     12.50%    100.00% (Unspecified)
system.caches.L2Cache_Controller.Mem_Ack::total     19138015                       (Unspecified)
system.caches.L2Cache_Controller.WB_Data |       12895     21.49%     21.49% |        7405     12.34%     33.84% |        2555      4.26%     38.10% |        3010      5.02%     43.11% |        3023      5.04%     48.15% |        4294      7.16%     55.31% |       23076     38.46%     93.77% |        3735      6.23%    100.00% (Unspecified)
system.caches.L2Cache_Controller.WB_Data::total        59993                       (Unspecified)
system.caches.L2Cache_Controller.WB_Data_clean |         985     20.17%     20.17% |         741     15.18%     35.35% |         722     14.79%     50.13% |         525     10.75%     60.88% |         563     11.53%     72.41% |         358      7.33%     79.75% |         297      6.08%     85.83% |         692     14.17%    100.00% (Unspecified)
system.caches.L2Cache_Controller.WB_Data_clean::total         4883                       (Unspecified)
system.caches.L2Cache_Controller.Ack     |        6145     13.89%     13.89% |        5849     13.22%     27.10% |        5384     12.17%     39.27% |        5069     11.45%     50.72% |        5697     12.87%     63.60% |        5482     12.39%     75.98% |        5229     11.82%     87.80% |        5399     12.20%    100.00% (Unspecified)
system.caches.L2Cache_Controller.Ack::total        44254                       (Unspecified)
system.caches.L2Cache_Controller.Ack_all |        9404     13.62%     13.62% |        9854     14.28%     27.90% |        8343     12.09%     39.99% |        7750     11.23%     51.21% |        8622     12.49%     63.70% |        8042     11.65%     75.35% |        8022     11.62%     86.97% |        8991     13.03%    100.00% (Unspecified)
system.caches.L2Cache_Controller.Ack_all::total        69028                       (Unspecified)
system.caches.L2Cache_Controller.Unblock |       10230     26.09%     26.09% |        5115     13.05%     39.14% |         885      2.26%     41.40% |         621      1.58%     42.98% |         856      2.18%     45.16% |         527      1.34%     46.51% |       20100     51.27%     97.77% |         873      2.23%    100.00% (Unspecified)
system.caches.L2Cache_Controller.Unblock::total        39207                       (Unspecified)
system.caches.L2Cache_Controller.Exclusive_Unblock |     2943344     12.55%     12.55% |     2934815     12.51%     25.06% |     2925640     12.47%     37.53% |     2925210     12.47%     50.00% |     2926483     12.47%     62.47% |     2928770     12.48%     74.95% |     2945955     12.56%     87.51% |     2929720     12.49%    100.00% (Unspecified)
system.caches.L2Cache_Controller.Exclusive_Unblock::total     23459937                       (Unspecified)
system.caches.L2Cache_Controller.MEM_Inv |         598     12.59%     12.59% |         594     12.51%     25.11% |         594     12.51%     37.62% |         594     12.51%     50.13% |         592     12.47%     62.59% |         592     12.47%     75.06% |         592     12.47%     87.53% |         592     12.47%    100.00% (Unspecified)
system.caches.L2Cache_Controller.MEM_Inv::total         4748                       (Unspecified)
system.caches.L2Cache_Controller.NP.L1_GET_INSTR |        6521     12.88%     12.88% |        6891     13.61%     26.50% |        6011     11.88%     38.37% |        5881     11.62%     49.99% |        6343     12.53%     62.52% |        6302     12.45%     74.97% |        6236     12.32%     87.29% |        6433     12.71%    100.00% (Unspecified)
system.caches.L2Cache_Controller.NP.L1_GET_INSTR::total        50618                       (Unspecified)
system.caches.L2Cache_Controller.NP.L1_GETS |     1050441     12.51%     12.51% |     1050572     12.51%     25.02% |     1049722     12.50%     37.52% |     1049286     12.49%     50.01% |     1049400     12.50%     62.51% |     1049284     12.49%     75.00% |     1049005     12.49%     87.50% |     1050058     12.50%    100.00% (Unspecified)
system.caches.L2Cache_Controller.NP.L1_GETS::total      8397768                       (Unspecified)
system.caches.L2Cache_Controller.NP.L1_GETX |     1353151     12.51%     12.51% |     1352242     12.50%     25.00% |     1352181     12.50%     37.50% |     1352209     12.50%     49.99% |     1352414     12.50%     62.49% |     1353222     12.51%     75.00% |     1352600     12.50%     87.50% |     1352682     12.50%    100.00% (Unspecified)
system.caches.L2Cache_Controller.NP.L1_GETX::total     10820701                       (Unspecified)
system.caches.L2Cache_Controller.SS.L1_GET_INSTR |       37808      8.93%      8.93% |       55925     13.21%     22.14% |       76111     17.98%     40.12% |       24637      5.82%     45.94% |       45489     10.75%     56.68% |       49394     11.67%     68.35% |       62273     14.71%     83.06% |       71709     16.94%    100.00% (Unspecified)
system.caches.L2Cache_Controller.SS.L1_GET_INSTR::total       423346                       (Unspecified)
system.caches.L2Cache_Controller.SS.L1_GETS |        8686     21.73%     21.73% |        4216     10.55%     32.28% |        5481     13.71%     45.99% |        3844      9.62%     55.61% |        4097     10.25%     65.86% |        4167     10.42%     76.28% |        3006      7.52%     83.80% |        6475     16.20%    100.00% (Unspecified)
system.caches.L2Cache_Controller.SS.L1_GETS::total        39972                       (Unspecified)
system.caches.L2Cache_Controller.SS.L1_GETX |         287     60.55%     60.55% |           4      0.84%     61.39% |           1      0.21%     61.60% |           3      0.63%     62.24% |           9      1.90%     64.14% |           1      0.21%     64.35% |         166     35.02%     99.37% |           3      0.63%    100.00% (Unspecified)
system.caches.L2Cache_Controller.SS.L1_GETX::total          474                       (Unspecified)
system.caches.L2Cache_Controller.SS.L1_UPGRADE |        8959     26.40%     26.40% |        4450     13.11%     39.51% |         183      0.54%     40.05% |          99      0.29%     40.34% |         276      0.81%     41.15% |         163      0.48%     41.63% |       19639     57.86%     99.49% |         172      0.51%    100.00% (Unspecified)
system.caches.L2Cache_Controller.SS.L1_UPGRADE::total        33941                       (Unspecified)
system.caches.L2Cache_Controller.SS.L2_Replacement |          12     12.63%     12.63% |          14     14.74%     27.37% |          14     14.74%     42.11% |          10     10.53%     52.63% |          14     14.74%     67.37% |          12     12.63%     80.00% |           8      8.42%     88.42% |          11     11.58%    100.00% (Unspecified)
system.caches.L2Cache_Controller.SS.L2_Replacement::total           95                       (Unspecified)
system.caches.L2Cache_Controller.SS.L2_Replacement_clean |        7940     13.91%     13.91% |        7758     13.59%     27.50% |        6992     12.25%     39.74% |        6562     11.49%     51.23% |        7061     12.37%     63.60% |        6838     11.98%     75.58% |        6580     11.52%     87.10% |        7363     12.90%    100.00% (Unspecified)
system.caches.L2Cache_Controller.SS.L2_Replacement_clean::total        57094                       (Unspecified)
system.caches.L2Cache_Controller.M.L1_GETS |       15273     13.80%     13.80% |       15749     14.23%     28.03% |       12801     11.57%     39.60% |       12773     11.54%     51.15% |       13730     12.41%     63.55% |       12634     11.42%     74.97% |       13145     11.88%     86.85% |       14552     13.15%    100.00% (Unspecified)
system.caches.L2Cache_Controller.M.L1_GETS::total       110657                       (Unspecified)
system.caches.L2Cache_Controller.M.L1_GETX |      515139     12.58%     12.58% |      511728     12.49%     25.07% |      510739     12.47%     37.54% |      510694     12.47%     50.01% |      510573     12.47%     62.48% |      513364     12.53%     75.01% |      511243     12.48%     87.50% |      512118     12.50%    100.00% (Unspecified)
system.caches.L2Cache_Controller.M.L1_GETX::total      4095598                       (Unspecified)
system.caches.L2Cache_Controller.M.L2_Replacement |     1869425     12.50%     12.50% |     1869228     12.50%     25.00% |     1869744     12.50%     37.50% |     1869363     12.50%     50.00% |     1869487     12.50%     62.50% |     1869397     12.50%     75.00% |     1869339     12.50%     87.50% |     1869331     12.50%    100.00% (Unspecified)
system.caches.L2Cache_Controller.M.L2_Replacement::total     14955314                       (Unspecified)
system.caches.L2Cache_Controller.M.L2_Replacement_clean |      511211     12.51%     12.51% |      511170     12.50%     25.01% |      511015     12.50%     37.51% |      510932     12.50%     50.01% |      510900     12.50%     62.51% |      510828     12.50%     75.01% |      510790     12.50%     87.50% |      510881     12.50%    100.00% (Unspecified)
system.caches.L2Cache_Controller.M.L2_Replacement_clean::total      4087727                       (Unspecified)
system.caches.L2Cache_Controller.M.MEM_Inv |          39     14.08%     14.08% |          38     13.72%     27.80% |          36     13.00%     40.79% |          33     11.91%     52.71% |          34     12.27%     64.98% |          32     11.55%     76.53% |          33     11.91%     88.45% |          32     11.55%    100.00% (Unspecified)
system.caches.L2Cache_Controller.M.MEM_Inv::total          277                       (Unspecified)
system.caches.L2Cache_Controller.MT.L1_GETS |       10230     26.09%     26.09% |        5115     13.05%     39.14% |         885      2.26%     41.40% |         621      1.58%     42.98% |         856      2.18%     45.16% |         527      1.34%     46.51% |       20100     51.27%     97.77% |         873      2.23%    100.00% (Unspecified)
system.caches.L2Cache_Controller.MT.L1_GETS::total        39207                       (Unspecified)
system.caches.L2Cache_Controller.MT.L1_GETX |         592     20.16%     20.16% |         338     11.51%     31.68% |         354     12.06%     43.73% |         354     12.06%     55.79% |         287      9.78%     65.57% |         329     11.21%     76.77% |         254      8.65%     85.42% |         428     14.58%    100.00% (Unspecified)
system.caches.L2Cache_Controller.MT.L1_GETX::total         2936                       (Unspecified)
system.caches.L2Cache_Controller.MT.L1_PUTX |     2925434     12.52%     12.52% |     2922251     12.51%     25.03% |     2918676     12.49%     37.52% |     2918140     12.49%     50.01% |     2919063     12.49%     62.50% |     2920592     12.50%     75.00% |     2918889     12.49%     87.50% |     2921255     12.50%    100.00% (Unspecified)
system.caches.L2Cache_Controller.MT.L1_PUTX::total     23364300                       (Unspecified)
system.caches.L2Cache_Controller.MT.L2_Replacement |         235     20.15%     20.15% |          99      8.49%     28.64% |          59      5.06%     33.70% |         112      9.61%     43.31% |         139     11.92%     55.23% |         155     13.29%     68.52% |         168     14.41%     82.93% |         199     17.07%    100.00% (Unspecified)
system.caches.L2Cache_Controller.MT.L2_Replacement::total         1166                       (Unspecified)
system.caches.L2Cache_Controller.MT.L2_Replacement_clean |        4607     13.45%     13.45% |        4755     13.89%     27.34% |        3409      9.95%     37.29% |        3716     10.85%     48.14% |        3876     11.32%     59.46% |        4898     14.30%     73.77% |        4276     12.49%     86.25% |        4708     13.75%    100.00% (Unspecified)
system.caches.L2Cache_Controller.MT.L2_Replacement_clean::total        34245                       (Unspecified)
system.caches.L2Cache_Controller.MT.MEM_Inv |         260     12.40%     12.40% |         259     12.35%     24.75% |         261     12.45%     37.20% |         264     12.59%     49.79% |         262     12.49%     62.28% |         264     12.59%     74.87% |         263     12.54%     87.41% |         264     12.59%    100.00% (Unspecified)
system.caches.L2Cache_Controller.MT.MEM_Inv::total         2097                       (Unspecified)
system.caches.L2Cache_Controller.M_I.L1_GET_INSTR |           6     11.76%     11.76% |          10     19.61%     31.37% |           7     13.73%     45.10% |           1      1.96%     47.06% |           8     15.69%     62.75% |           9     17.65%     80.39% |           7     13.73%     94.12% |           3      5.88%    100.00% (Unspecified)
system.caches.L2Cache_Controller.M_I.L1_GET_INSTR::total           51                       (Unspecified)
system.caches.L2Cache_Controller.M_I.L1_GETS |           5      5.15%      5.15% |          14     14.43%     19.59% |          11     11.34%     30.93% |          10     10.31%     41.24% |          19     19.59%     60.82% |          22     22.68%     83.51% |          11     11.34%     94.85% |           5      5.15%    100.00% (Unspecified)
system.caches.L2Cache_Controller.M_I.L1_GETS::total           97                       (Unspecified)
system.caches.L2Cache_Controller.M_I.L1_GETX |           4      5.41%      5.41% |           4      5.41%     10.81% |           4      5.41%     16.22% |          14     18.92%     35.14% |          11     14.86%     50.00% |          18     24.32%     74.32% |           3      4.05%     78.38% |          16     21.62%    100.00% (Unspecified)
system.caches.L2Cache_Controller.M_I.L1_GETX::total           74                       (Unspecified)
system.caches.L2Cache_Controller.M_I.Mem_Ack |     2393729     12.51%     12.51% |     2393321     12.51%     25.01% |     2391530     12.50%     37.51% |     2390992     12.49%     50.00% |     2391773     12.50%     62.50% |     2392424     12.50%     75.00% |     2391457     12.50%     87.50% |     2392789     12.50%    100.00% (Unspecified)
system.caches.L2Cache_Controller.M_I.Mem_Ack::total     19138015                       (Unspecified)
system.caches.L2Cache_Controller.M_I.MEM_Inv |          39     14.08%     14.08% |          38     13.72%     27.80% |          36     13.00%     40.79% |          33     11.91%     52.71% |          34     12.27%     64.98% |          32     11.55%     76.53% |          33     11.91%     88.45% |          32     11.55%    100.00% (Unspecified)
system.caches.L2Cache_Controller.M_I.MEM_Inv::total          277                       (Unspecified)
system.caches.L2Cache_Controller.MT_I.WB_Data |         246     19.43%     19.43% |         114      9.00%     28.44% |          74      5.85%     34.28% |         128     10.11%     44.39% |         150     11.85%     56.24% |         168     13.27%     69.51% |         179     14.14%     83.65% |         207     16.35%    100.00% (Unspecified)
system.caches.L2Cache_Controller.MT_I.WB_Data::total         1266                       (Unspecified)
system.caches.L2Cache_Controller.MT_I.Ack_all |         249     12.47%     12.47% |         244     12.22%     24.69% |         246     12.32%     37.01% |         248     12.42%     49.42% |         251     12.57%     61.99% |         251     12.57%     74.56% |         252     12.62%     87.18% |         256     12.82%    100.00% (Unspecified)
system.caches.L2Cache_Controller.MT_I.Ack_all::total         1997                       (Unspecified)
system.caches.L2Cache_Controller.MT_I.MEM_Inv |         260     12.40%     12.40% |         259     12.35%     24.75% |         261     12.45%     37.20% |         264     12.59%     49.79% |         262     12.49%     62.28% |         264     12.59%     74.87% |         263     12.54%     87.41% |         264     12.59%    100.00% (Unspecified)
system.caches.L2Cache_Controller.MT_I.MEM_Inv::total         2097                       (Unspecified)
system.caches.L2Cache_Controller.MCT_I.WB_Data |        3404     13.95%     13.95% |        2917     11.95%     25.90% |        2318      9.50%     35.40% |        2786     11.42%     46.82% |        2580     10.57%     57.39% |        3957     16.22%     73.61% |        3094     12.68%     86.28% |        3347     13.72%    100.00% (Unspecified)
system.caches.L2Cache_Controller.MCT_I.WB_Data::total        24403                       (Unspecified)
system.caches.L2Cache_Controller.MCT_I.Ack_all |        1203     12.22%     12.22% |        1838     18.68%     30.90% |        1091     11.09%     41.98% |         930      9.45%     51.43% |        1296     13.17%     64.60% |         941      9.56%     74.16% |        1182     12.01%     86.17% |        1361     13.83%    100.00% (Unspecified)
system.caches.L2Cache_Controller.MCT_I.Ack_all::total         9842                       (Unspecified)
system.caches.L2Cache_Controller.I_I.L1_GETS |           0      0.00%      0.00% |           0      0.00%      0.00% |           0      0.00%      0.00% |           1    100.00%    100.00% |           0      0.00%    100.00% |           0      0.00%    100.00% |           0      0.00%    100.00% |           0      0.00%    100.00% (Unspecified)
system.caches.L2Cache_Controller.I_I.L1_GETS::total            1                       (Unspecified)
system.caches.L2Cache_Controller.I_I.Ack |        6133     13.89%     13.89% |        5835     13.21%     27.10% |        5370     12.16%     39.26% |        5059     11.46%     50.72% |        5683     12.87%     63.59% |        5470     12.39%     75.98% |        5221     11.82%     87.80% |        5388     12.20%    100.00% (Unspecified)
system.caches.L2Cache_Controller.I_I.Ack::total        44159                       (Unspecified)
system.caches.L2Cache_Controller.I_I.Ack_all |        7940     13.91%     13.91% |        7758     13.59%     27.50% |        6992     12.25%     39.74% |        6562     11.49%     51.23% |        7061     12.37%     63.60% |        6838     11.98%     75.58% |        6580     11.52%     87.10% |        7363     12.90%    100.00% (Unspecified)
system.caches.L2Cache_Controller.I_I.Ack_all::total        57094                       (Unspecified)
system.caches.L2Cache_Controller.S_I.Ack |          12     12.63%     12.63% |          14     14.74%     27.37% |          14     14.74%     42.11% |          10     10.53%     52.63% |          14     14.74%     67.37% |          12     12.63%     80.00% |           8      8.42%     88.42% |          11     11.58%    100.00% (Unspecified)
system.caches.L2Cache_Controller.S_I.Ack::total           95                       (Unspecified)
system.caches.L2Cache_Controller.S_I.Ack_all |          12     12.63%     12.63% |          14     14.74%     27.37% |          14     14.74%     42.11% |          10     10.53%     52.63% |          14     14.74%     67.37% |          12     12.63%     80.00% |           8      8.42%     88.42% |          11     11.58%    100.00% (Unspecified)
system.caches.L2Cache_Controller.S_I.Ack_all::total           95                       (Unspecified)
system.caches.L2Cache_Controller.ISS.L1_GETS |         498     23.29%     23.29% |         268     12.54%     35.83% |         341     15.95%     51.78% |         208      9.73%     61.51% |         206      9.64%     71.14% |         227     10.62%     81.76% |          97      4.54%     86.30% |         293     13.70%    100.00% (Unspecified)
system.caches.L2Cache_Controller.ISS.L1_GETS::total         2138                       (Unspecified)
system.caches.L2Cache_Controller.ISS.Mem_Data |     1049943     12.51%     12.51% |     1050304     12.51%     25.02% |     1049381     12.50%     37.52% |     1049078     12.50%     50.01% |     1049194     12.50%     62.51% |     1049057     12.50%     75.00% |     1048908     12.49%     87.50% |     1049765     12.50%    100.00% (Unspecified)
system.caches.L2Cache_Controller.ISS.Mem_Data::total      8395630                       (Unspecified)
system.caches.L2Cache_Controller.IS.L1_GET_INSTR |        1222     12.83%     12.83% |        1325     13.91%     26.75% |        1060     11.13%     37.88% |        1176     12.35%     50.23% |        1286     13.50%     63.73% |        1348     14.16%     77.89% |        1107     11.62%     89.51% |         999     10.49%    100.00% (Unspecified)
system.caches.L2Cache_Controller.IS.L1_GET_INSTR::total         9523                       (Unspecified)
system.caches.L2Cache_Controller.IS.Mem_Data |        7019     13.30%     13.30% |        7159     13.57%     26.87% |        6352     12.04%     38.92% |        6089     11.54%     50.46% |        6549     12.41%     62.87% |        6529     12.38%     75.25% |        6333     12.00%     87.25% |        6726     12.75%    100.00% (Unspecified)
system.caches.L2Cache_Controller.IS.Mem_Data::total        52756                       (Unspecified)
system.caches.L2Cache_Controller.IM.L1_GETX |           0      0.00%      0.00% |           3     75.00%     75.00% |           0      0.00%     75.00% |           1     25.00%    100.00% |           0      0.00%    100.00% |           0      0.00%    100.00% |           0      0.00%    100.00% |           0      0.00%    100.00% (Unspecified)
system.caches.L2Cache_Controller.IM.L1_GETX::total            4                       (Unspecified)
system.caches.L2Cache_Controller.IM.Mem_Data |     1353151     12.51%     12.51% |     1352242     12.50%     25.00% |     1352181     12.50%     37.50% |     1352209     12.50%     49.99% |     1352414     12.50%     62.49% |     1353222     12.51%     75.00% |     1352600     12.50%     87.50% |     1352682     12.50%    100.00% (Unspecified)
system.caches.L2Cache_Controller.IM.Mem_Data::total     10820701                       (Unspecified)
system.caches.L2Cache_Controller.SS_MB.L1_GETS |           5      0.04%      0.04% |           0      0.00%      0.04% |           0      0.00%      0.04% |           1      0.01%      0.05% |           0      0.00%      0.05% |           0      0.00%      0.05% |       11298     99.95%    100.00% |           0      0.00%    100.00% (Unspecified)
system.caches.L2Cache_Controller.SS_MB.L1_GETS::total        11304                       (Unspecified)
system.caches.L2Cache_Controller.SS_MB.L1_GETX |           0      0.00%      0.00% |           0      0.00%      0.00% |           0      0.00%      0.00% |           0      0.00%      0.00% |           0      0.00%      0.00% |           0      0.00%      0.00% |           0      0.00%      0.00% |           1    100.00%    100.00% (Unspecified)
system.caches.L2Cache_Controller.SS_MB.L1_GETX::total            1                       (Unspecified)
system.caches.L2Cache_Controller.SS_MB.L1_UPGRADE |           1     16.67%     16.67% |           0      0.00%     16.67% |           1     16.67%     33.33% |           0      0.00%     33.33% |           0      0.00%     33.33% |           0      0.00%     33.33% |           3     50.00%     83.33% |           1     16.67%    100.00% (Unspecified)
system.caches.L2Cache_Controller.SS_MB.L1_UPGRADE::total            6                       (Unspecified)
system.caches.L2Cache_Controller.SS_MB.Exclusive_Unblock |        9246     26.87%     26.87% |        4454     12.94%     39.81% |         184      0.53%     40.34% |         102      0.30%     40.64% |         285      0.83%     41.47% |         164      0.48%     41.94% |       19805     57.55%     99.49% |         175      0.51%    100.00% (Unspecified)
system.caches.L2Cache_Controller.SS_MB.Exclusive_Unblock::total        34415                       (Unspecified)
[...]
system.timingCpu0.exec_context.thread_0.statExecutedInstType::FloatMemWrite    205585247      3.42%    100.00% # Class of executed instruction. (Count)
system.timingCpu0.exec_context.thread_0.statExecutedInstType::IprAccess            0      0.00%    100.00% # Class of executed instruction. (Count)
system.timingCpu0.exec_context.thread_0.statExecutedInstType::InstPrefetch            0      0.00%    100.00% # Class of executed instruction. (Count)
system.timingCpu0.exec_context.thread_0.statExecutedInstType::total   6010623704                       # Class of executed instruction. (Count)
system.timingCpu0.mmu.dtb.rdAccesses       1287707453                       # TLB accesses on read requests (Count)
system.timingCpu0.mmu.dtb.wrAccesses        256494384                       # TLB accesses on write requests (Count)
system.timingCpu0.mmu.dtb.rdMisses             112468                       # TLB misses on read requests (Count)
system.timingCpu0.mmu.dtb.wrMisses              16320                       # TLB misses on write requests (Count)
system.timingCpu0.mmu.dtb.walker.power_state.pwrStateResidencyTicks::UNDEFINED 21158553412000                       # Cumulative time (in ticks) in various power states (Tick)
system.timingCpu0.mmu.itb.rdAccesses                0                       # TLB accesses on read requests (Count)
system.timingCpu0.mmu.itb.wrAccesses       4929632024                       # TLB accesses on write requests (Count)
system.timingCpu0.mmu.itb.rdMisses                  0                       # TLB misses on read requests (Count)
system.timingCpu0.mmu.itb.wrMisses               8379                       # TLB misses on write requests (Count)
system.timingCpu0.mmu.itb.walker.power_state.pwrStateResidencyTicks::UNDEFINED 21158553412000                       # Cumulative time (in ticks) in various power states (Tick)
system.timingCpu0.power_state.numTransitions            4                       # Number of power state transitions (Count)
system.timingCpu0.power_state.ticksClkGated::samples            2                       # Distribution of time spent in the clock gated state (Tick)
system.timingCpu0.power_state.ticksClkGated::mean    414590000                       # Distribution of time spent in the clock gated state (Tick)
system.timingCpu0.power_state.ticksClkGated::stdev 193022827.147789                       # Distribution of time spent in the clock gated state (Tick)
system.timingCpu0.power_state.ticksClkGated::1000-5e+10            2    100.00%    100.00% # Distribution of time spent in the clock gated state (Tick)
system.timingCpu0.power_state.ticksClkGated::min_value    278102250                       # Distribution of time spent in the clock gated state (Tick)
system.timingCpu0.power_state.ticksClkGated::max_value    551077750                       # Distribution of time spent in the clock gated state (Tick)
system.timingCpu0.power_state.ticksClkGated::total            2                       # Distribution of time spent in the clock gated state (Tick)
system.timingCpu0.power_state.pwrStateResidencyTicks::ON 4683275309750                       # Cumulative time (in ticks) in various power states (Tick)
system.timingCpu0.power_state.pwrStateResidencyTicks::CLK_GATED    829180000                       # Cumulative time (in ticks) in various power states (Tick)
system.timingCpu0.power_state.pwrStateResidencyTicks::OFF 16474448922250                       # Cumulative time (in ticks) in various power states (Tick)
system.timingCpu0.thread_0.numInsts                 0                       # Number of Instructions committed (Count)
system.timingCpu0.thread_0.numOps                   0                       # Number of Ops committed (Count)
system.timingCpu0.thread_0.numMemRefs               0                       # Number of Memory References (Count)
system.timingCpu1.numCycles               20000000000                       # Number of cpu cycles simulated (Cycle)
system.timingCpu1.numWorkItemsStarted               0                       # Number of work items this cpu started (Count)
system.timingCpu1.numWorkItemsCompleted             0                       # Number of work items this cpu completed (Count)
system.timingCpu1.exec_context.thread_0.numInsts   3158347784                       # Number of instructions committed (Count)
system.timingCpu1.exec_context.thread_0.numOps   6008796309                       # Number of ops (including micro ops) committed (Count)
system.timingCpu1.exec_context.thread_0.numIntAluAccesses   2661926219                       # Number of integer alu accesses (Count)
system.timingCpu1.exec_context.thread_0.numFpAluAccesses   4804016733                       # Number of float alu accesses (Count)
system.timingCpu1.exec_context.thread_0.numVecAluAccesses            0                       # Number of vector alu accesses (Count)
system.timingCpu1.exec_context.thread_0.numCallsReturns     26066870                       # Number of times a function call or return occured (Count)
system.timingCpu1.exec_context.thread_0.numCondCtrlInsts     24811627                       # Number of instructions that are conditional controls (Count)
system.timingCpu1.exec_context.thread_0.numIntInsts   2661926219                       # Number of integer instructions (Count)
system.timingCpu1.exec_context.thread_0.numFpInsts   4804016733                       # Number of float instructions (Count)
system.timingCpu1.exec_context.thread_0.numVecInsts            0                       # Number of vector instructions (Count)
system.timingCpu1.exec_context.thread_0.numIntRegReads   2284032642                       # Number of times the integer registers were read (Count)
system.timingCpu1.exec_context.thread_0.numIntRegWrites   1081985185                       # Number of times the integer registers were written (Count)
system.timingCpu1.exec_context.thread_0.numFpRegReads   8795194206                       # Number of times the floating registers were read (Count)
system.timingCpu1.exec_context.thread_0.numFpRegWrites   4598479944                       # Number of times the floating registers were written (Count)
system.timingCpu1.exec_context.thread_0.numVecRegReads            0                       # Number of times the vector registers were read (Count)
system.timingCpu1.exec_context.thread_0.numVecRegWrites            0                       # Number of times the vector registers were written (Count)
system.timingCpu1.exec_context.thread_0.numVecPredRegReads            0                       # Number of times the predicate registers were read (Count)
system.timingCpu1.exec_context.thread_0.numVecPredRegWrites            0                       # Number of times the predicate registers were written (Count)
system.timingCpu1.exec_context.thread_0.numCCRegReads    133969230                       # Number of times the CC registers were read (Count)
system.timingCpu1.exec_context.thread_0.numCCRegWrites    312965080                       # Number of times the CC registers were written (Count)
system.timingCpu1.exec_context.thread_0.numMiscRegReads   2160285704                       # Number of times the Misc registers were read (Count)
system.timingCpu1.exec_context.thread_0.numMiscRegWrites       185745                       # Number of times the Misc registers were written (Count)
system.timingCpu1.exec_context.thread_0.numMemRefs   1541811459                       # Number of memory refs (Count)
system.timingCpu1.exec_context.thread_0.numLoadInsts   1286957398                       # Number of load instructions (Count)
system.timingCpu1.exec_context.thread_0.numStoreInsts    254854061                       # Number of store instructions (Count)
system.timingCpu1.exec_context.thread_0.numIdleCycles 38266036.999992                       # Number of idle cycles (Cycle)
system.timingCpu1.exec_context.thread_0.numBusyCycles 19961733963.000008                       # Number of busy cycles (Cycle)
system.timingCpu1.exec_context.thread_0.notIdleFraction     0.998087                       # Percentage of non-idle cycles (Ratio)
system.timingCpu1.exec_context.thread_0.idleFraction     0.001913                       # Percentage of idle cycles (Ratio)
system.timingCpu1.exec_context.thread_0.numBranches     51523077                       # Number of branches fetched (Count)
system.timingCpu1.exec_context.thread_0.statExecutedInstType::No_OpClass       200460      0.00%      0.00% # Class of executed instruction. (Count)
system.timingCpu1.exec_context.thread_0.statExecutedInstType::IntAlu   1596927311     26.58%     26.58% # Class of executed instruction. (Count)
system.timingCpu1.exec_context.thread_0.statExecutedInstType::IntMult      4434857      0.07%     26.65% # Class of executed instruction. (Count)
system.timingCpu1.exec_context.thread_0.statExecutedInstType::IntDiv       228236      0.00%     26.66% # Class of executed instruction. (Count)
system.timingCpu1.exec_context.thread_0.statExecutedInstType::FloatAdd    241353053      4.02%     30.67% # Class of executed instruction. (Count)
system.timingCpu1.exec_context.thread_0.statExecutedInstType::FloatCmp            0      0.00%     30.67% # Class of executed instruction. (Count)
system.timingCpu1.exec_context.thread_0.statExecutedInstType::FloatCvt          304      0.00%     30.67% # Class of executed instruction. (Count)
system.timingCpu1.exec_context.thread_0.statExecutedInstType::FloatMult            0      0.00%     30.67% # Class of executed instruction. (Count)
system.timingCpu1.exec_context.thread_0.statExecutedInstType::FloatMultAcc            0      0.00%     30.67% # Class of executed instruction. (Count)
system.timingCpu1.exec_context.thread_0.statExecutedInstType::FloatDiv            0      0.00%     30.67% # Class of executed instruction. (Count)
system.timingCpu1.exec_context.thread_0.statExecutedInstType::FloatMisc            0      0.00%     30.67% # Class of executed instruction. (Count)
system.timingCpu1.exec_context.thread_0.statExecutedInstType::FloatSqrt            0      0.00%     30.67% # Class of executed instruction. (Count)
system.timingCpu1.exec_context.thread_0.statExecutedInstType::SimdAdd           40      0.00%     30.67% # Class of executed instruction. (Count)
system.timingCpu1.exec_context.thread_0.statExecutedInstType::SimdAddAcc            0      0.00%     30.67% # Class of executed instruction. (Count)
system.timingCpu1.exec_context.thread_0.statExecutedInstType::SimdAlu    160922281      2.68%     33.35% # Class of executed instruction. (Count)
system.timingCpu1.exec_context.thread_0.statExecutedInstType::SimdCmp            0      0.00%     33.35% # Class of executed instruction. (Count)
system.timingCpu1.exec_context.thread_0.statExecutedInstType::SimdCvt           80      0.00%     33.35% # Class of executed instruction. (Count)
system.timingCpu1.exec_context.thread_0.statExecutedInstType::SimdMisc     80461150      1.34%     34.69% # Class of executed instruction. (Count)
system.timingCpu1.exec_context.thread_0.statExecutedInstType::SimdMult            0      0.00%     34.69% # Class of executed instruction. (Count)
system.timingCpu1.exec_context.thread_0.statExecutedInstType::SimdMultAcc            0      0.00%     34.69% # Class of executed instruction. (Count)
system.timingCpu1.exec_context.thread_0.statExecutedInstType::SimdShift            5      0.00%     34.69% # Class of executed instruction. (Count)
system.timingCpu1.exec_context.thread_0.statExecutedInstType::SimdShiftAcc            0      0.00%     34.69% # Class of executed instruction. (Count)
system.timingCpu1.exec_context.thread_0.statExecutedInstType::SimdDiv            0      0.00%     34.69% # Class of executed instruction. (Count)
system.timingCpu1.exec_context.thread_0.statExecutedInstType::SimdSqrt            0      0.00%     34.69% # Class of executed instruction. (Count)
system.timingCpu1.exec_context.thread_0.statExecutedInstType::SimdFloatAdd   1161097192     19.32%     54.01% # Class of executed instruction. (Count)
system.timingCpu1.exec_context.thread_0.statExecutedInstType::SimdFloatAlu            0      0.00%     54.01% # Class of executed instruction. (Count)
system.timingCpu1.exec_context.thread_0.statExecutedInstType::SimdFloatCmp            0      0.00%     54.01% # Class of executed instruction. (Count)
system.timingCpu1.exec_context.thread_0.statExecutedInstType::SimdFloatCvt     80461110      1.34%     55.35% # Class of executed instruction. (Count)
system.timingCpu1.exec_context.thread_0.statExecutedInstType::SimdFloatDiv     52807383      0.88%     56.23% # Class of executed instruction. (Count)
system.timingCpu1.exec_context.thread_0.statExecutedInstType::SimdFloatMisc            0      0.00%     56.23% # Class of executed instruction. (Count)
system.timingCpu1.exec_context.thread_0.statExecutedInstType::SimdFloatMult   1088091864     18.11%     74.34% # Class of executed instruction. (Count)
system.timingCpu1.exec_context.thread_0.statExecutedInstType::SimdFloatMultAcc            0      0.00%     74.34% # Class of executed instruction. (Count)
system.timingCpu1.exec_context.thread_0.statExecutedInstType::SimdFloatSqrt            0      0.00%     74.34% # Class of executed instruction. (Count)
system.timingCpu1.exec_context.thread_0.statExecutedInstType::SimdReduceAdd            0      0.00%     74.34% # Class of executed instruction. (Count)
system.timingCpu1.exec_context.thread_0.statExecutedInstType::SimdReduceAlu            0      0.00%     74.34% # Class of executed instruction. (Count)
system.timingCpu1.exec_context.thread_0.statExecutedInstType::SimdReduceCmp            0      0.00%     74.34% # Class of executed instruction. (Count)
system.timingCpu1.exec_context.thread_0.statExecutedInstType::SimdFloatReduceAdd            0      0.00%     74.34% # Class of executed instruction. (Count)
system.timingCpu1.exec_context.thread_0.statExecutedInstType::SimdFloatReduceCmp            0      0.00%     74.34% # Class of executed instruction. (Count)
system.timingCpu1.exec_context.thread_0.statExecutedInstType::SimdAes            0      0.00%     74.34% # Class of executed instruction. (Count)
system.timingCpu1.exec_context.thread_0.statExecutedInstType::SimdAesMix            0      0.00%     74.34% # Class of executed instruction. (Count)
system.timingCpu1.exec_context.thread_0.statExecutedInstType::SimdSha1Hash            0      0.00%     74.34% # Class of executed instruction. (Count)
system.timingCpu1.exec_context.thread_0.statExecutedInstType::SimdSha1Hash2            0      0.00%     74.34% # Class of executed instruction. (Count)
system.timingCpu1.exec_context.thread_0.statExecutedInstType::SimdSha256Hash            0      0.00%     74.34% # Class of executed instruction. (Count)
system.timingCpu1.exec_context.thread_0.statExecutedInstType::SimdSha256Hash2            0      0.00%     74.34% # Class of executed instruction. (Count)
system.timingCpu1.exec_context.thread_0.statExecutedInstType::SimdShaSigma2            0      0.00%     74.34% # Class of executed instruction. (Count)
system.timingCpu1.exec_context.thread_0.statExecutedInstType::SimdShaSigma3            0      0.00%     74.34% # Class of executed instruction. (Count)
system.timingCpu1.exec_context.thread_0.statExecutedInstType::SimdPredAlu            0      0.00%     74.34% # Class of executed instruction. (Count)
system.timingCpu1.exec_context.thread_0.statExecutedInstType::MemRead    113891491      1.90%     76.24% # Class of executed instruction. (Count)
system.timingCpu1.exec_context.thread_0.statExecutedInstType::MemWrite     49317616      0.82%     77.06% # Class of executed instruction. (Count)
system.timingCpu1.exec_context.thread_0.statExecutedInstType::FloatMemRead   1173065907     19.52%     96.58% # Class of executed instruction. (Count)
system.timingCpu1.exec_context.thread_0.statExecutedInstType::FloatMemWrite    205536445      3.42%    100.00% # Class of executed instruction. (Count)
system.timingCpu1.exec_context.thread_0.statExecutedInstType::IprAccess            0      0.00%    100.00% # Class of executed instruction. (Count)
system.timingCpu1.exec_context.thread_0.statExecutedInstType::InstPrefetch            0      0.00%    100.00% # Class of executed instruction. (Count)
system.timingCpu1.exec_context.thread_0.statExecutedInstType::total   6008796785                       # Class of executed instruction. (Count)
system.timingCpu1.mmu.dtb.rdAccesses       1287057168                       # TLB accesses on read requests (Count)
system.timingCpu1.mmu.dtb.wrAccesses        254871017                       # TLB accesses on write requests (Count)
system.timingCpu1.mmu.dtb.rdMisses             101290                       # TLB misses on read requests (Count)
system.timingCpu1.mmu.dtb.wrMisses              17897                       # TLB misses on write requests (Count)
system.timingCpu1.mmu.dtb.walker.power_state.pwrStateResidencyTicks::UNDEFINED 21158553412000                       # Cumulative time (in ticks) in various power states (Tick)
system.timingCpu1.mmu.itb.rdAccesses                0                       # TLB accesses on read requests (Count)
system.timingCpu1.mmu.itb.wrAccesses       4929768730                       # TLB accesses on write requests (Count)
system.timingCpu1.mmu.itb.rdMisses                  0                       # TLB misses on read requests (Count)
system.timingCpu1.mmu.itb.wrMisses               8730                       # TLB misses on write requests (Count)
system.timingCpu1.mmu.itb.walker.power_state.pwrStateResidencyTicks::UNDEFINED 21158553412000                       # Cumulative time (in ticks) in various power states (Tick)
system.timingCpu1.power_state.numTransitions           24                       # Number of power state transitions (Count)
system.timingCpu1.power_state.ticksClkGated::samples           12                       # Distribution of time spent in the clock gated state (Tick)
system.timingCpu1.power_state.ticksClkGated::mean 797209104.166667                       # Distribution of time spent in the clock gated state (Tick)
system.timingCpu1.power_state.ticksClkGated::stdev 376487217.452521                       # Distribution of time spent in the clock gated state (Tick)
system.timingCpu1.power_state.ticksClkGated::1000-5e+10           12    100.00%    100.00% # Distribution of time spent in the clock gated state (Tick)
system.timingCpu1.power_state.ticksClkGated::min_value      2172500                       # Distribution of time spent in the clock gated state (Tick)
system.timingCpu1.power_state.ticksClkGated::max_value    998451250                       # Distribution of time spent in the clock gated state (Tick)
system.timingCpu1.power_state.ticksClkGated::total           12                       # Distribution of time spent in the clock gated state (Tick)
system.timingCpu1.power_state.pwrStateResidencyTicks::ON 1579479035250                       # Cumulative time (in ticks) in various power states (Tick)
system.timingCpu1.power_state.pwrStateResidencyTicks::CLK_GATED   9566509250                       # Cumulative time (in ticks) in various power states (Tick)
system.timingCpu1.power_state.pwrStateResidencyTicks::OFF 19569507867500                       # Cumulative time (in ticks) in various power states (Tick)
system.timingCpu1.thread_0.numInsts                 0                       # Number of Instructions committed (Count)
system.timingCpu1.thread_0.numOps                   0                       # Number of Ops committed (Count)
system.timingCpu1.thread_0.numMemRefs               0                       # Number of Memory References (Count)
system.workload.inst.arm                            0                       # number of arm instructions executed (Count)
system.workload.inst.quiesce                        0                       # number of quiesce instructions executed (Count)

---------- End Simulation Statistics   ----------
