
---------- Begin Simulation Statistics ----------
simSeconds                                          2                       # Number of seconds simulated (Second)
simTicks                                 2000000000000                       # Number of ticks simulated (Tick)
finalTick                                163682526979500                       # Number of ticks from beginning of simulation (restored from checkpoints and never reset) (Tick)
simFreq                                  1000000000000                       # The number of ticks per simulated second ((Tick/Second))
hostSeconds                                   9270.95                       # Real time elapsed on the host (Second)
hostTickRate                                215727578                       # The number of ticks simulated per host second (ticks/s) ((Tick/Second))
hostMemory                                    9417940                       # Number of bytes of host memory used (Byte)
simInsts                                  40865038568                       # Number of instructions simulated (Count)
simOps                                    42497191846                       # Number of ops (including micro ops) simulated (Count)
hostInstRate                                  4407858                       # Simulator instruction rate (inst/s) ((Count/Second))
hostOpRate                                    4583908                       # Simulator op (including micro ops) rate (op/s) ((Count/Second))
system.atomicCpu0.numCycles                         0                       # Number of cpu cycles simulated (Cycle)
system.atomicCpu0.numWorkItemsStarted               0                       # Number of work items this cpu started (Count)
system.atomicCpu0.numWorkItemsCompleted             0                       # Number of work items this cpu completed (Count)
system.atomicCpu0.exec_context.thread_0.numInsts            0                       # Number of instructions committed (Count)
system.atomicCpu0.exec_context.thread_0.numOps            0                       # Number of ops (including micro ops) committed (Count)
system.atomicCpu0.exec_context.thread_0.numIntAluAccesses            0                       # Number of integer alu accesses (Count)
system.atomicCpu0.exec_context.thread_0.numFpAluAccesses            0                       # Number of float alu accesses (Count)
system.atomicCpu0.exec_context.thread_0.numVecAluAccesses            0                       # Number of vector alu accesses (Count)
system.atomicCpu0.exec_context.thread_0.numCallsReturns            0                       # Number of times a function call or return occured (Count)
system.atomicCpu0.exec_context.thread_0.numCondCtrlInsts            0                       # Number of instructions that are conditional controls (Count)
system.atomicCpu0.exec_context.thread_0.numIntInsts            0                       # Number of integer instructions (Count)
system.atomicCpu0.exec_context.thread_0.numFpInsts            0                       # Number of float instructions (Count)
system.atomicCpu0.exec_context.thread_0.numVecInsts            0                       # Number of vector instructions (Count)
system.atomicCpu0.exec_context.thread_0.numIntRegReads            0                       # Number of times the integer registers were read (Count)
system.atomicCpu0.exec_context.thread_0.numIntRegWrites            0                       # Number of times the integer registers were written (Count)
system.atomicCpu0.exec_context.thread_0.numFpRegReads            0                       # Number of times the floating registers were read (Count)
system.atomicCpu0.exec_context.thread_0.numFpRegWrites            0                       # Number of times the floating registers were written (Count)
system.atomicCpu0.exec_context.thread_0.numVecRegReads            0                       # Number of times the vector registers were read (Count)
system.atomicCpu0.exec_context.thread_0.numVecRegWrites            0                       # Number of times the vector registers were written (Count)
system.atomicCpu0.exec_context.thread_0.numVecPredRegReads            0                       # Number of times the predicate registers were read (Count)
system.atomicCpu0.exec_context.thread_0.numVecPredRegWrites            0                       # Number of times the predicate registers were written (Count)
system.atomicCpu0.exec_context.thread_0.numMiscRegReads            0                       # Number of times the Misc registers were read (Count)
system.atomicCpu0.exec_context.thread_0.numMiscRegWrites            0                       # Number of times the Misc registers were written (Count)
system.atomicCpu0.exec_context.thread_0.numMemRefs            0                       # Number of memory refs (Count)
system.atomicCpu0.exec_context.thread_0.numLoadInsts            0                       # Number of load instructions (Count)
system.atomicCpu0.exec_context.thread_0.numStoreInsts            0                       # Number of store instructions (Count)
system.atomicCpu0.exec_context.thread_0.numIdleCycles            0                       # Number of idle cycles (Cycle)
system.atomicCpu0.exec_context.thread_0.numBusyCycles            0                       # Number of busy cycles (Cycle)
system.atomicCpu0.exec_context.thread_0.notIdleFraction            0                       # Percentage of non-idle cycles (Ratio)
system.atomicCpu0.exec_context.thread_0.idleFraction            1                       # Percentage of idle cycles (Ratio)
system.atomicCpu0.exec_context.thread_0.statExecutedInstType::No_OpClass            0                       # Class of executed instruction. (Count)
system.atomicCpu0.exec_context.thread_0.statExecutedInstType::IntAlu            0                       # Class of executed instruction. (Count)
system.atomicCpu0.exec_context.thread_0.statExecutedInstType::IntMult            0                       # Class of executed instruction. (Count)
system.atomicCpu0.exec_context.thread_0.statExecutedInstType::IntDiv            0                       # Class of executed instruction. (Count)
system.atomicCpu0.exec_context.thread_0.statExecutedInstType::FloatAdd            0                       # Class of executed instruction. (Count)
system.atomicCpu0.exec_context.thread_0.statExecutedInstType::FloatCmp            0                       # Class of executed instruction. (Count)
system.atomicCpu0.exec_context.thread_0.statExecutedInstType::FloatCvt            0                       # Class of executed instruction. (Count)
system.atomicCpu0.exec_context.thread_0.statExecutedInstType::FloatMult            0                       # Class of executed instruction. (Count)
system.atomicCpu0.exec_context.thread_0.statExecutedInstType::FloatMultAcc            0                       # Class of executed instruction. (Count)
system.atomicCpu0.exec_context.thread_0.statExecutedInstType::FloatDiv            0                       # Class of executed instruction. (Count)
system.atomicCpu0.exec_context.thread_0.statExecutedInstType::FloatMisc            0                       # Class of executed instruction. (Count)
system.atomicCpu0.exec_context.thread_0.statExecutedInstType::FloatSqrt            0                       # Class of executed instruction. (Count)
system.atomicCpu0.exec_context.thread_0.statExecutedInstType::SimdAdd            0                       # Class of executed instruction. (Count)
system.atomicCpu0.exec_context.thread_0.statExecutedInstType::SimdAddAcc            0                       # Class of executed instruction. (Count)
system.atomicCpu0.exec_context.thread_0.statExecutedInstType::SimdAlu            0                       # Class of executed instruction. (Count)
system.atomicCpu0.exec_context.thread_0.statExecutedInstType::SimdCmp            0                       # Class of executed instruction. (Count)
system.atomicCpu0.exec_context.thread_0.statExecutedInstType::SimdCvt            0                       # Class of executed instruction. (Count)
system.atomicCpu0.exec_context.thread_0.statExecutedInstType::SimdMisc            0                       # Class of executed instruction. (Count)
system.atomicCpu0.exec_context.thread_0.statExecutedInstType::SimdMult            0                       # Class of executed instruction. (Count)
system.atomicCpu0.exec_context.thread_0.statExecutedInstType::SimdMultAcc            0                       # Class of executed instruction. (Count)
system.atomicCpu0.exec_context.thread_0.statExecutedInstType::SimdShift            0                       # Class of executed instruction. (Count)
system.atomicCpu0.exec_context.thread_0.statExecutedInstType::SimdShiftAcc            0                       # Class of executed instruction. (Count)
system.atomicCpu0.exec_context.thread_0.statExecutedInstType::SimdDiv            0                       # Class of executed instruction. (Count)
system.atomicCpu0.exec_context.thread_0.statExecutedInstType::SimdSqrt            0                       # Class of executed instruction. (Count)
system.atomicCpu0.exec_context.thread_0.statExecutedInstType::SimdFloatAdd            0                       # Class of executed instruction. (Count)
system.atomicCpu0.exec_context.thread_0.statExecutedInstType::SimdFloatAlu            0                       # Class of executed instruction. (Count)
system.atomicCpu0.exec_context.thread_0.statExecutedInstType::SimdFloatCmp            0                       # Class of executed instruction. (Count)
system.atomicCpu0.exec_context.thread_0.statExecutedInstType::SimdFloatCvt            0                       # Class of executed instruction. (Count)
system.atomicCpu0.exec_context.thread_0.statExecutedInstType::SimdFloatDiv            0                       # Class of executed instruction. (Count)
system.atomicCpu0.exec_context.thread_0.statExecutedInstType::SimdFloatMisc            0                       # Class of executed instruction. (Count)
system.atomicCpu0.exec_context.thread_0.statExecutedInstType::SimdFloatMult            0                       # Class of executed instruction. (Count)
system.atomicCpu0.exec_context.thread_0.statExecutedInstType::SimdFloatMultAcc            0                       # Class of executed instruction. (Count)
system.atomicCpu0.exec_context.thread_0.statExecutedInstType::SimdFloatSqrt            0                       # Class of executed instruction. (Count)
system.atomicCpu0.exec_context.thread_0.statExecutedInstType::SimdReduceAdd            0                       # Class of executed instruction. (Count)
system.atomicCpu0.exec_context.thread_0.statExecutedInstType::SimdReduceAlu            0                       # Class of executed instruction. (Count)
system.atomicCpu0.exec_context.thread_0.statExecutedInstType::SimdReduceCmp            0                       # Class of executed instruction. (Count)
system.atomicCpu0.exec_context.thread_0.statExecutedInstType::SimdFloatReduceAdd            0                       # Class of executed instruction. (Count)
system.atomicCpu0.exec_context.thread_0.statExecutedInstType::SimdFloatReduceCmp            0                       # Class of executed instruction. (Count)
system.atomicCpu0.exec_context.thread_0.statExecutedInstType::SimdAes            0                       # Class of executed instruction. (Count)
system.atomicCpu0.exec_context.thread_0.statExecutedInstType::SimdAesMix            0                       # Class of executed instruction. (Count)
system.atomicCpu0.exec_context.thread_0.statExecutedInstType::SimdSha1Hash            0                       # Class of executed instruction. (Count)
system.atomicCpu0.exec_context.thread_0.statExecutedInstType::SimdSha1Hash2            0                       # Class of executed instruction. (Count)
system.atomicCpu0.exec_context.thread_0.statExecutedInstType::SimdSha256Hash            0                       # Class of executed instruction. (Count)
system.atomicCpu0.exec_context.thread_0.statExecutedInstType::SimdSha256Hash2            0                       # Class of executed instruction. (Count)
system.atomicCpu0.exec_context.thread_0.statExecutedInstType::SimdShaSigma2            0                       # Class of executed instruction. (Count)
system.atomicCpu0.exec_context.thread_0.statExecutedInstType::SimdShaSigma3            0                       # Class of executed instruction. (Count)
system.atomicCpu0.exec_context.thread_0.statExecutedInstType::SimdPredAlu            0                       # Class of executed instruction. (Count)
system.atomicCpu0.exec_context.thread_0.statExecutedInstType::MemRead            0                       # Class of executed instruction. (Count)
system.atomicCpu0.exec_context.thread_0.statExecutedInstType::MemWrite            0                       # Class of executed instruction. (Count)
system.atomicCpu0.exec_context.thread_0.statExecutedInstType::FloatMemRead            0                       # Class of executed instruction. (Count)
system.atomicCpu0.exec_context.thread_0.statExecutedInstType::FloatMemWrite            0                       # Class of executed instruction. (Count)
system.atomicCpu0.exec_context.thread_0.statExecutedInstType::IprAccess            0                       # Class of executed instruction. (Count)
system.atomicCpu0.exec_context.thread_0.statExecutedInstType::InstPrefetch            0                       # Class of executed instruction. (Count)
system.atomicCpu0.exec_context.thread_0.statExecutedInstType::total            0                       # Class of executed instruction. (Count)
system.atomicCpu0.mmu.dtb.rdAccesses                0                       # TLB accesses on read requests (Count)
system.atomicCpu0.mmu.dtb.wrAccesses                0                       # TLB accesses on write requests (Count)
system.atomicCpu0.mmu.dtb.rdMisses                  0                       # TLB misses on read requests (Count)
system.atomicCpu0.mmu.dtb.wrMisses                  0                       # TLB misses on write requests (Count)
system.atomicCpu0.mmu.dtb.walker.power_state.pwrStateResidencyTicks::UNDEFINED 163682526979500                       # Cumulative time (in ticks) in various power states (Tick)
system.atomicCpu0.mmu.itb.rdAccesses                0                       # TLB accesses on read requests (Count)
system.atomicCpu0.mmu.itb.wrAccesses                0                       # TLB accesses on write requests (Count)
system.atomicCpu0.mmu.itb.rdMisses                  0                       # TLB misses on read requests (Count)
system.atomicCpu0.mmu.itb.wrMisses                  0                       # TLB misses on write requests (Count)
system.atomicCpu0.mmu.itb.walker.power_state.pwrStateResidencyTicks::UNDEFINED 163682526979500                       # Cumulative time (in ticks) in various power states (Tick)
system.atomicCpu0.power_state.pwrStateResidencyTicks::OFF 163682526979500                       # Cumulative time (in ticks) in various power states (Tick)
system.atomicCpu0.thread_0.numInsts                 0                       # Number of Instructions committed (Count)
system.atomicCpu0.thread_0.numOps                   0                       # Number of Ops committed (Count)
system.atomicCpu0.thread_0.numMemRefs               0                       # Number of Memory References (Count)
system.atomicCpu1.numCycles                         0                       # Number of cpu cycles simulated (Cycle)
system.atomicCpu1.numWorkItemsStarted               0                       # Number of work items this cpu started (Count)
system.atomicCpu1.numWorkItemsCompleted             0                       # Number of work items this cpu completed (Count)
system.atomicCpu1.exec_context.thread_0.numInsts            0                       # Number of instructions committed (Count)
system.atomicCpu1.exec_context.thread_0.numOps            0                       # Number of ops (including micro ops) committed (Count)
system.atomicCpu1.exec_context.thread_0.numIntAluAccesses            0                       # Number of integer alu accesses (Count)
system.atomicCpu1.exec_context.thread_0.numFpAluAccesses            0                       # Number of float alu accesses (Count)
system.atomicCpu1.exec_context.thread_0.numVecAluAccesses            0                       # Number of vector alu accesses (Count)
system.atomicCpu1.exec_context.thread_0.numCallsReturns            0                       # Number of times a function call or return occured (Count)
system.atomicCpu1.exec_context.thread_0.numCondCtrlInsts            0                       # Number of instructions that are conditional controls (Count)
system.atomicCpu1.exec_context.thread_0.numIntInsts            0                       # Number of integer instructions (Count)
system.atomicCpu1.exec_context.thread_0.numFpInsts            0                       # Number of float instructions (Count)
system.atomicCpu1.exec_context.thread_0.numVecInsts            0                       # Number of vector instructions (Count)
system.atomicCpu1.exec_context.thread_0.numIntRegReads            0                       # Number of times the integer registers were read (Count)
system.atomicCpu1.exec_context.thread_0.numIntRegWrites            0                       # Number of times the integer registers were written (Count)
system.atomicCpu1.exec_context.thread_0.numFpRegReads            0                       # Number of times the floating registers were read (Count)
system.atomicCpu1.exec_context.thread_0.numFpRegWrites            0                       # Number of times the floating registers were written (Count)
system.atomicCpu1.exec_context.thread_0.numVecRegReads            0                       # Number of times the vector registers were read (Count)
system.atomicCpu1.exec_context.thread_0.numVecRegWrites            0                       # Number of times the vector registers were written (Count)
system.atomicCpu1.exec_context.thread_0.numVecPredRegReads            0                       # Number of times the predicate registers were read (Count)
system.atomicCpu1.exec_context.thread_0.numVecPredRegWrites            0                       # Number of times the predicate registers were written (Count)
system.atomicCpu1.exec_context.thread_0.numMiscRegReads            0                       # Number of times the Misc registers were read (Count)
system.atomicCpu1.exec_context.thread_0.numMiscRegWrites            0                       # Number of times the Misc registers were written (Count)
system.atomicCpu1.exec_context.thread_0.numMemRefs            0                       # Number of memory refs (Count)
system.atomicCpu1.exec_context.thread_0.numLoadInsts            0                       # Number of load instructions (Count)
system.atomicCpu1.exec_context.thread_0.numStoreInsts            0                       # Number of store instructions (Count)
system.atomicCpu1.exec_context.thread_0.numIdleCycles            0                       # Number of idle cycles (Cycle)
system.atomicCpu1.exec_context.thread_0.numBusyCycles            0                       # Number of busy cycles (Cycle)
system.atomicCpu1.exec_context.thread_0.notIdleFraction            0                       # Percentage of non-idle cycles (Ratio)
system.atomicCpu1.exec_context.thread_0.idleFraction            1                       # Percentage of idle cycles (Ratio)
system.atomicCpu1.exec_context.thread_0.statExecutedInstType::No_OpClass            0                       # Class of executed instruction. (Count)
system.atomicCpu1.exec_context.thread_0.statExecutedInstType::IntAlu            0                       # Class of executed instruction. (Count)
system.atomicCpu1.exec_context.thread_0.statExecutedInstType::IntMult            0                       # Class of executed instruction. (Count)
system.atomicCpu1.exec_context.thread_0.statExecutedInstType::IntDiv            0                       # Class of executed instruction. (Count)
system.atomicCpu1.exec_context.thread_0.statExecutedInstType::FloatAdd            0                       # Class of executed instruction. (Count)
system.atomicCpu1.exec_context.thread_0.statExecutedInstType::FloatCmp            0                       # Class of executed instruction. (Count)
system.atomicCpu1.exec_context.thread_0.statExecutedInstType::FloatCvt            0                       # Class of executed instruction. (Count)
system.atomicCpu1.exec_context.thread_0.statExecutedInstType::FloatMult            0                       # Class of executed instruction. (Count)
system.atomicCpu1.exec_context.thread_0.statExecutedInstType::FloatMultAcc            0                       # Class of executed instruction. (Count)
system.atomicCpu1.exec_context.thread_0.statExecutedInstType::FloatDiv            0                       # Class of executed instruction. (Count)
system.atomicCpu1.exec_context.thread_0.statExecutedInstType::FloatMisc            0                       # Class of executed instruction. (Count)
system.atomicCpu1.exec_context.thread_0.statExecutedInstType::FloatSqrt            0                       # Class of executed instruction. (Count)
system.atomicCpu1.exec_context.thread_0.statExecutedInstType::SimdAdd            0                       # Class of executed instruction. (Count)
system.atomicCpu1.exec_context.thread_0.statExecutedInstType::SimdAddAcc            0                       # Class of executed instruction. (Count)
system.atomicCpu1.exec_context.thread_0.statExecutedInstType::SimdAlu            0                       # Class of executed instruction. (Count)
system.atomicCpu1.exec_context.thread_0.statExecutedInstType::SimdCmp            0                       # Class of executed instruction. (Count)
system.atomicCpu1.exec_context.thread_0.statExecutedInstType::SimdCvt            0                       # Class of executed instruction. (Count)
system.atomicCpu1.exec_context.thread_0.statExecutedInstType::SimdMisc            0                       # Class of executed instruction. (Count)
system.atomicCpu1.exec_context.thread_0.statExecutedInstType::SimdMult            0                       # Class of executed instruction. (Count)
system.atomicCpu1.exec_context.thread_0.statExecutedInstType::SimdMultAcc            0                       # Class of executed instruction. (Count)
system.atomicCpu1.exec_context.thread_0.statExecutedInstType::SimdShift            0                       # Class of executed instruction. (Count)
system.atomicCpu1.exec_context.thread_0.statExecutedInstType::SimdShiftAcc            0                       # Class of executed instruction. (Count)
system.atomicCpu1.exec_context.thread_0.statExecutedInstType::SimdDiv            0                       # Class of executed instruction. (Count)
system.atomicCpu1.exec_context.thread_0.statExecutedInstType::SimdSqrt            0                       # Class of executed instruction. (Count)
system.atomicCpu1.exec_context.thread_0.statExecutedInstType::SimdFloatAdd            0                       # Class of executed instruction. (Count)
system.atomicCpu1.exec_context.thread_0.statExecutedInstType::SimdFloatAlu            0                       # Class of executed instruction. (Count)
system.atomicCpu1.exec_context.thread_0.statExecutedInstType::SimdFloatCmp            0                       # Class of executed instruction. (Count)
system.atomicCpu1.exec_context.thread_0.statExecutedInstType::SimdFloatCvt            0                       # Class of executed instruction. (Count)
system.atomicCpu1.exec_context.thread_0.statExecutedInstType::SimdFloatDiv            0                       # Class of executed instruction. (Count)
system.atomicCpu1.exec_context.thread_0.statExecutedInstType::SimdFloatMisc            0                       # Class of executed instruction. (Count)
system.atomicCpu1.exec_context.thread_0.statExecutedInstType::SimdFloatMult            0                       # Class of executed instruction. (Count)
system.atomicCpu1.exec_context.thread_0.statExecutedInstType::SimdFloatMultAcc            0                       # Class of executed instruction. (Count)
system.atomicCpu1.exec_context.thread_0.statExecutedInstType::SimdFloatSqrt            0                       # Class of executed instruction. (Count)
system.atomicCpu1.exec_context.thread_0.statExecutedInstType::SimdReduceAdd            0                       # Class of executed instruction. (Count)
system.atomicCpu1.exec_context.thread_0.statExecutedInstType::SimdReduceAlu            0                       # Class of executed instruction. (Count)
system.atomicCpu1.exec_context.thread_0.statExecutedInstType::SimdReduceCmp            0                       # Class of executed instruction. (Count)
system.atomicCpu1.exec_context.thread_0.statExecutedInstType::SimdFloatReduceAdd            0                       # Class of executed instruction. (Count)
system.atomicCpu1.exec_context.thread_0.statExecutedInstType::SimdFloatReduceCmp            0                       # Class of executed instruction. (Count)
system.atomicCpu1.exec_context.thread_0.statExecutedInstType::SimdAes            0                       # Class of executed instruction. (Count)
system.atomicCpu1.exec_context.thread_0.statExecutedInstType::SimdAesMix            0                       # Class of executed instruction. (Count)
system.atomicCpu1.exec_context.thread_0.statExecutedInstType::SimdSha1Hash            0                       # Class of executed instruction. (Count)
system.atomicCpu1.exec_context.thread_0.statExecutedInstType::SimdSha1Hash2            0                       # Class of executed instruction. (Count)
system.atomicCpu1.exec_context.thread_0.statExecutedInstType::SimdSha256Hash            0                       # Class of executed instruction. (Count)
system.atomicCpu1.exec_context.thread_0.statExecutedInstType::SimdSha256Hash2            0                       # Class of executed instruction. (Count)
system.atomicCpu1.exec_context.thread_0.statExecutedInstType::SimdShaSigma2            0                       # Class of executed instruction. (Count)
system.atomicCpu1.exec_context.thread_0.statExecutedInstType::SimdShaSigma3            0                       # Class of executed instruction. (Count)
system.atomicCpu1.exec_context.thread_0.statExecutedInstType::SimdPredAlu            0                       # Class of executed instruction. (Count)
system.atomicCpu1.exec_context.thread_0.statExecutedInstType::MemRead            0                       # Class of executed instruction. (Count)
system.atomicCpu1.exec_context.thread_0.statExecutedInstType::MemWrite            0                       # Class of executed instruction. (Count)
system.atomicCpu1.exec_context.thread_0.statExecutedInstType::FloatMemRead            0                       # Class of executed instruction. (Count)
system.atomicCpu1.exec_context.thread_0.statExecutedInstType::FloatMemWrite            0                       # Class of executed instruction. (Count)
system.atomicCpu1.exec_context.thread_0.statExecutedInstType::IprAccess            0                       # Class of executed instruction. (Count)
system.atomicCpu1.exec_context.thread_0.statExecutedInstType::InstPrefetch            0                       # Class of executed instruction. (Count)
system.atomicCpu1.exec_context.thread_0.statExecutedInstType::total            0                       # Class of executed instruction. (Count)
system.atomicCpu1.mmu.dtb.rdAccesses                0                       # TLB accesses on read requests (Count)
system.atomicCpu1.mmu.dtb.wrAccesses                0                       # TLB accesses on write requests (Count)
system.atomicCpu1.mmu.dtb.rdMisses                  0                       # TLB misses on read requests (Count)
system.atomicCpu1.mmu.dtb.wrMisses                  0                       # TLB misses on write requests (Count)
system.atomicCpu1.mmu.dtb.walker.power_state.pwrStateResidencyTicks::UNDEFINED 163682526979500                       # Cumulative time (in ticks) in various power states (Tick)
system.atomicCpu1.mmu.itb.rdAccesses                0                       # TLB accesses on read requests (Count)
system.atomicCpu1.mmu.itb.wrAccesses                0                       # TLB accesses on write requests (Count)
system.atomicCpu1.mmu.itb.rdMisses                  0                       # TLB misses on read requests (Count)
system.atomicCpu1.mmu.itb.wrMisses                  0                       # TLB misses on write requests (Count)
system.atomicCpu1.mmu.itb.walker.power_state.pwrStateResidencyTicks::UNDEFINED 163682526979500                       # Cumulative time (in ticks) in various power states (Tick)
system.atomicCpu1.power_state.pwrStateResidencyTicks::OFF 163682526979500                       # Cumulative time (in ticks) in various power states (Tick)
system.atomicCpu1.thread_0.numInsts                 0                       # Number of Instructions committed (Count)
system.atomicCpu1.thread_0.numOps                   0                       # Number of Ops committed (Count)
system.atomicCpu1.thread_0.numMemRefs               0                       # Number of Memory References (Count)
system.caches.delayHistogram::bucket_size          128                       # delay histogram for all message (Unspecified)
system.caches.delayHistogram::max_bucket         1279                       # delay histogram for all message (Unspecified)
system.caches.delayHistogram::samples       125496767                       # delay histogram for all message (Unspecified)
system.caches.delayHistogram::mean           0.492479                       # delay histogram for all message (Unspecified)
system.caches.delayHistogram::stdev          1.927188                       # delay histogram for all message (Unspecified)
system.caches.delayHistogram             |   125496761    100.00%    100.00% |           1      0.00%    100.00% |           1      0.00%    100.00% |           1      0.00%    100.00% |           2      0.00%    100.00% |           1      0.00%    100.00% |           0      0.00%    100.00% |           0      0.00%    100.00% |           0      0.00%    100.00% |           0      0.00%    100.00% # delay histogram for all message (Unspecified)
system.caches.delayHistogram::total         125496767                       # delay histogram for all message (Unspecified)
system.caches.m_outstandReqHistSeqr::bucket_size            1                       (Unspecified)
system.caches.m_outstandReqHistSeqr::max_bucket            9                       (Unspecified)
system.caches.m_outstandReqHistSeqr::samples   4160833810                       (Unspecified)
system.caches.m_outstandReqHistSeqr::mean     1.000054                       (Unspecified)
system.caches.m_outstandReqHistSeqr::gmean     1.000037                       (Unspecified)
system.caches.m_outstandReqHistSeqr::stdev     0.007334                       (Unspecified)
system.caches.m_outstandReqHistSeqr      |           0      0.00%      0.00% |  4160610000     99.99%     99.99% |      223810      0.01%    100.00% |           0      0.00%    100.00% |           0      0.00%    100.00% |           0      0.00%    100.00% |           0      0.00%    100.00% |           0      0.00%    100.00% |           0      0.00%    100.00% |           0      0.00%    100.00% (Unspecified)
system.caches.m_outstandReqHistSeqr::total   4160833810                       (Unspecified)
system.caches.m_latencyHistSeqr::bucket_size          512                       (Unspecified)
system.caches.m_latencyHistSeqr::max_bucket         5119                       (Unspecified)
system.caches.m_latencyHistSeqr::samples   4160833809                       (Unspecified)
system.caches.m_latencyHistSeqr::mean        2.446954                       (Unspecified)
system.caches.m_latencyHistSeqr::gmean       1.027638                       (Unspecified)
system.caches.m_latencyHistSeqr::stdev      32.379782                       (Unspecified)
system.caches.m_latencyHistSeqr          |  4154886712     99.86%     99.86% |     5564412      0.13%     99.99% |      175059      0.00%    100.00% |      140365      0.00%    100.00% |       63151      0.00%    100.00% |        3935      0.00%    100.00% |         171      0.00%    100.00% |           4      0.00%    100.00% |           0      0.00%    100.00% |           0      0.00%    100.00% (Unspecified)
system.caches.m_latencyHistSeqr::total     4160833809                       (Unspecified)
system.caches.m_hitLatencyHistSeqr::bucket_size            1                       (Unspecified)
system.caches.m_hitLatencyHistSeqr::max_bucket            9                       (Unspecified)
system.caches.m_hitLatencyHistSeqr::samples   4130493505                       (Unspecified)
system.caches.m_hitLatencyHistSeqr::mean            1                       (Unspecified)
system.caches.m_hitLatencyHistSeqr::gmean            1                       (Unspecified)
system.caches.m_hitLatencyHistSeqr       |           0      0.00%      0.00% |  4130493505    100.00%    100.00% |           0      0.00%    100.00% |           0      0.00%    100.00% |           0      0.00%    100.00% |           0      0.00%    100.00% |           0      0.00%    100.00% |           0      0.00%    100.00% |           0      0.00%    100.00% |           0      0.00%    100.00% (Unspecified)
system.caches.m_hitLatencyHistSeqr::total   4130493505                       (Unspecified)
system.caches.m_missLatencyHistSeqr::bucket_size          512                       (Unspecified)
system.caches.m_missLatencyHistSeqr::max_bucket         5119                       (Unspecified)
system.caches.m_missLatencyHistSeqr::samples     30340304                       (Unspecified)
system.caches.m_missLatencyHistSeqr::mean   199.433646                       (Unspecified)
system.caches.m_missLatencyHistSeqr::gmean    42.046979                       (Unspecified)
system.caches.m_missLatencyHistSeqr::stdev   323.565232                       (Unspecified)
system.caches.m_missLatencyHistSeqr      |    24393207     80.40%     80.40% |     5564412     18.34%     98.74% |      175059      0.58%     99.32% |      140365      0.46%     99.78% |       63151      0.21%     99.99% |        3935      0.01%    100.00% |         171      0.00%    100.00% |           4      0.00%    100.00% |           0      0.00%    100.00% |           0      0.00%    100.00% (Unspecified)
system.caches.m_missLatencyHistSeqr::total     30340304                       (Unspecified)
system.caches.delayVCHist.vnet_0::bucket_size          128                       # delay histogram for vnet_0 (Unspecified)
system.caches.delayVCHist.vnet_0::max_bucket         1279                       # delay histogram for vnet_0 (Unspecified)
system.caches.delayVCHist.vnet_0::samples     60713212                       # delay histogram for vnet_0 (Unspecified)
system.caches.delayVCHist.vnet_0::mean       1.017763                       # delay histogram for vnet_0 (Unspecified)
system.caches.delayVCHist.vnet_0::stdev      2.672345                       # delay histogram for vnet_0 (Unspecified)
system.caches.delayVCHist.vnet_0         |    60713206    100.00%    100.00% |           1      0.00%    100.00% |           1      0.00%    100.00% |           1      0.00%    100.00% |           2      0.00%    100.00% |           1      0.00%    100.00% |           0      0.00%    100.00% |           0      0.00%    100.00% |           0      0.00%    100.00% |           0      0.00%    100.00% # delay histogram for vnet_0 (Unspecified)
system.caches.delayVCHist.vnet_0::total      60713212                       # delay histogram for vnet_0 (Unspecified)
system.caches.delayVCHist.vnet_1::bucket_size            1                       # delay histogram for vnet_1 (Unspecified)
system.caches.delayVCHist.vnet_1::max_bucket            9                       # delay histogram for vnet_1 (Unspecified)
system.caches.delayVCHist.vnet_1::samples     63981121                       # delay histogram for vnet_1 (Unspecified)
system.caches.delayVCHist.vnet_1::mean       0.000200                       # delay histogram for vnet_1 (Unspecified)
system.caches.delayVCHist.vnet_1::stdev      0.033266                       # delay histogram for vnet_1 (Unspecified)
system.caches.delayVCHist.vnet_1         |    63978364    100.00%    100.00% |           0      0.00%    100.00% |         720      0.00%    100.00% |           0      0.00%    100.00% |         843      0.00%    100.00% |           0      0.00%    100.00% |         785      0.00%    100.00% |           0      0.00%    100.00% |         409      0.00%    100.00% |           0      0.00%    100.00% # delay histogram for vnet_1 (Unspecified)
system.caches.delayVCHist.vnet_1::total      63981121                       # delay histogram for vnet_1 (Unspecified)
system.caches.delayVCHist.vnet_2::bucket_size            1                       # delay histogram for vnet_2 (Unspecified)
system.caches.delayVCHist.vnet_2::max_bucket            9                       # delay histogram for vnet_2 (Unspecified)
system.caches.delayVCHist.vnet_2::samples       802434                       # delay histogram for vnet_2 (Unspecified)
system.caches.delayVCHist.vnet_2::mean       0.000112                       # delay histogram for vnet_2 (Unspecified)
system.caches.delayVCHist.vnet_2::stdev      0.014977                       # delay histogram for vnet_2 (Unspecified)
system.caches.delayVCHist.vnet_2         |      802389     99.99%     99.99% |           0      0.00%     99.99% |          45      0.01%    100.00% |           0      0.00%    100.00% |           0      0.00%    100.00% |           0      0.00%    100.00% |           0      0.00%    100.00% |           0      0.00%    100.00% |           0      0.00%    100.00% |           0      0.00%    100.00% # delay histogram for vnet_2 (Unspecified)
system.caches.delayVCHist.vnet_2::total        802434                       # delay histogram for vnet_2 (Unspecified)
system.caches.L1Cache_Controller.Load    |   274606740     43.84%     43.84% |   351765648     56.16%    100.00% (Unspecified)
system.caches.L1Cache_Controller.Load::total    626372388                       (Unspecified)
system.caches.L1Cache_Controller.Ifetch  |  1447278010     44.84%     44.84% |  1780230766     55.16%    100.00% (Unspecified)
system.caches.L1Cache_Controller.Ifetch::total   3227508776                       (Unspecified)
system.caches.L1Cache_Controller.Store   |   138781103     45.21%     45.21% |   168171542     54.79%    100.00% (Unspecified)
system.caches.L1Cache_Controller.Store::total    306952645                       (Unspecified)
system.caches.L1Cache_Controller.Inv     |      254343     50.02%     50.02% |      254105     49.98%    100.00% (Unspecified)
system.caches.L1Cache_Controller.Inv::total       508448                       (Unspecified)
system.caches.L1Cache_Controller.L1_Replacement |    13659875     45.16%     45.16% |    16588472     54.84%    100.00% (Unspecified)
system.caches.L1Cache_Controller.L1_Replacement::total     30248347                       (Unspecified)
system.caches.L1Cache_Controller.Fwd_GETX |       18333     61.64%     61.64% |       11407     38.36%    100.00% (Unspecified)
system.caches.L1Cache_Controller.Fwd_GETX::total        29740                       (Unspecified)
system.caches.L1Cache_Controller.Fwd_GETS |      144133     54.55%     54.55% |      120113     45.45%    100.00% (Unspecified)
system.caches.L1Cache_Controller.Fwd_GETS::total       264246                       (Unspecified)
system.caches.L1Cache_Controller.Data    |        2199     97.99%     97.99% |          45      2.01%    100.00% (Unspecified)
system.caches.L1Cache_Controller.Data::total         2244                       (Unspecified)
system.caches.L1Cache_Controller.Data_Exclusive |     3646662     38.56%     38.56% |     5810660     61.44%    100.00% (Unspecified)
system.caches.L1Cache_Controller.Data_Exclusive::total      9457322                       (Unspecified)
system.caches.L1Cache_Controller.DataS_fromL1 |      120113     45.45%     45.45% |      144133     54.55%    100.00% (Unspecified)
system.caches.L1Cache_Controller.DataS_fromL1::total       264246                       (Unspecified)
system.caches.L1Cache_Controller.Data_all_Acks |     9924941     48.18%     48.18% |    10675201     51.82%    100.00% (Unspecified)
system.caches.L1Cache_Controller.Data_all_Acks::total     20600142                       (Unspecified)
system.caches.L1Cache_Controller.Ack     |       11670     71.38%     71.38% |        4680     28.62%    100.00% (Unspecified)
system.caches.L1Cache_Controller.Ack::total        16350                       (Unspecified)
system.caches.L1Cache_Controller.Ack_all |       13869     74.59%     74.59% |        4725     25.41%    100.00% (Unspecified)
system.caches.L1Cache_Controller.Ack_all::total        18594                       (Unspecified)
system.caches.L1Cache_Controller.WB_Ack  |     5961446     40.02%     40.02% |     8936393     59.98%    100.00% (Unspecified)
system.caches.L1Cache_Controller.WB_Ack::total     14897839                       (Unspecified)
system.caches.L1Cache_Controller.NP.Load |    11097804     45.53%     45.53% |    13277734     54.47%    100.00% (Unspecified)
system.caches.L1Cache_Controller.NP.Load::total     24375538                       (Unspecified)
system.caches.L1Cache_Controller.NP.Ifetch |       92663     59.68%     59.68% |       62595     40.32%    100.00% (Unspecified)
system.caches.L1Cache_Controller.NP.Ifetch::total       155258                       (Unspecified)
system.caches.L1Cache_Controller.NP.Store |     2478112     43.21%     43.21% |     3256846     56.79%    100.00% (Unspecified)
system.caches.L1Cache_Controller.NP.Store::total      5734958                       (Unspecified)
system.caches.L1Cache_Controller.NP.Inv  |      213469     49.59%     49.59% |      217015     50.41%    100.00% (Unspecified)
system.caches.L1Cache_Controller.NP.Inv::total       430484                       (Unspecified)
system.caches.L1Cache_Controller.I.Load  |        4454     23.25%     23.25% |       14707     76.75%    100.00% (Unspecified)
system.caches.L1Cache_Controller.I.Load::total        19161                       (Unspecified)
system.caches.L1Cache_Controller.I.Ifetch |       19696     53.45%     53.45% |       17150     46.55%    100.00% (Unspecified)
system.caches.L1Cache_Controller.I.Ifetch::total        36846                       (Unspecified)
system.caches.L1Cache_Controller.I.Store |        1186     54.11%     54.11% |        1006     45.89%    100.00% (Unspecified)
system.caches.L1Cache_Controller.I.Store::total         2192                       (Unspecified)
system.caches.L1Cache_Controller.I.L1_Replacement |       33658     68.61%     68.61% |       15396     31.39%    100.00% (Unspecified)
system.caches.L1Cache_Controller.I.L1_Replacement::total        49054                       (Unspecified)
system.caches.L1Cache_Controller.S.Load  |    38169245     50.35%     50.35% |    37638438     49.65%    100.00% (Unspecified)
system.caches.L1Cache_Controller.S.Load::total     75807683                       (Unspecified)
system.caches.L1Cache_Controller.S.Ifetch |  1447165651     44.84%     44.84% |  1780151021     55.16%    100.00% (Unspecified)
system.caches.L1Cache_Controller.S.Ifetch::total   3227316672                       (Unspecified)
system.caches.L1Cache_Controller.S.Store |       11670     71.37%     71.37% |        4681     28.63%    100.00% (Unspecified)
system.caches.L1Cache_Controller.S.Store::total        16351                       (Unspecified)
system.caches.L1Cache_Controller.S.Inv   |       29713     46.28%     46.28% |       34483     53.72%    100.00% (Unspecified)
system.caches.L1Cache_Controller.S.Inv::total        64196                       (Unspecified)
system.caches.L1Cache_Controller.S.L1_Replacement |     7664771     50.09%     50.09% |     7636683     49.91%    100.00% (Unspecified)
system.caches.L1Cache_Controller.S.L1_Replacement::total     15301454                       (Unspecified)
system.caches.L1Cache_Controller.E.Load  |    20794133     42.60%     42.60% |    28018897     57.40%    100.00% (Unspecified)
system.caches.L1Cache_Controller.E.Load::total     48813030                       (Unspecified)
system.caches.L1Cache_Controller.E.Store |      145436      7.27%      7.27% |     1854473     92.73%    100.00% (Unspecified)
system.caches.L1Cache_Controller.E.Store::total      1999909                       (Unspecified)
system.caches.L1Cache_Controller.E.Inv   |        7978     89.14%     89.14% |         972     10.86%    100.00% (Unspecified)
system.caches.L1Cache_Controller.E.Inv::total         8950                       (Unspecified)
system.caches.L1Cache_Controller.E.L1_Replacement |     3366161     46.76%     46.76% |     3833382     53.24%    100.00% (Unspecified)
system.caches.L1Cache_Controller.E.L1_Replacement::total      7199543                       (Unspecified)
system.caches.L1Cache_Controller.E.Fwd_GETX |          14      2.65%      2.65% |         514     97.35%    100.00% (Unspecified)
system.caches.L1Cache_Controller.E.Fwd_GETX::total          528                       (Unspecified)
system.caches.L1Cache_Controller.E.Fwd_GETS |      125252     51.19%     51.19% |      119445     48.81%    100.00% (Unspecified)
system.caches.L1Cache_Controller.E.Fwd_GETS::total       244697                       (Unspecified)
system.caches.L1Cache_Controller.M.Load  |   204541104     42.85%     42.85% |   272815872     57.15%    100.00% (Unspecified)
system.caches.L1Cache_Controller.M.Load::total    477356976                       (Unspecified)
system.caches.L1Cache_Controller.M.Store |   136144699     45.50%     45.50% |   163054536     54.50%    100.00% (Unspecified)
system.caches.L1Cache_Controller.M.Store::total    299199235                       (Unspecified)
system.caches.L1Cache_Controller.M.Inv   |        3183     66.13%     66.13% |        1630     33.87%    100.00% (Unspecified)
system.caches.L1Cache_Controller.M.Inv::total         4813                       (Unspecified)
system.caches.L1Cache_Controller.M.L1_Replacement |     2595285     33.71%     33.71% |     5103011     66.29%    100.00% (Unspecified)
system.caches.L1Cache_Controller.M.L1_Replacement::total      7698296                       (Unspecified)
system.caches.L1Cache_Controller.M.Fwd_GETX |       18319     62.71%     62.71% |       10893     37.29%    100.00% (Unspecified)
system.caches.L1Cache_Controller.M.Fwd_GETX::total        29212                       (Unspecified)
system.caches.L1Cache_Controller.M.Fwd_GETS |       18881     96.58%     96.58% |         668      3.42%    100.00% (Unspecified)
system.caches.L1Cache_Controller.M.Fwd_GETS::total        19549                       (Unspecified)
system.caches.L1Cache_Controller.IS.Inv  |           0      0.00%      0.00% |           3    100.00%    100.00% (Unspecified)
system.caches.L1Cache_Controller.IS.Inv::total            3                       (Unspecified)
system.caches.L1Cache_Controller.IS.Data_Exclusive |     3646662     38.56%     38.56% |     5810660     61.44%    100.00% (Unspecified)
system.caches.L1Cache_Controller.IS.Data_Exclusive::total      9457322                       (Unspecified)
system.caches.L1Cache_Controller.IS.DataS_fromL1 |      120113     45.46%     45.46% |      144130     54.54%    100.00% (Unspecified)
system.caches.L1Cache_Controller.IS.DataS_fromL1::total       264243                       (Unspecified)
system.caches.L1Cache_Controller.IS.Data_all_Acks |     7447842     50.10%     50.10% |     7417393     49.90%    100.00% (Unspecified)
system.caches.L1Cache_Controller.IS.Data_all_Acks::total     14865235                       (Unspecified)
system.caches.L1Cache_Controller.IM.Inv  |           0      0.00%      0.00% |           1    100.00%    100.00% (Unspecified)
system.caches.L1Cache_Controller.IM.Inv::total            1                       (Unspecified)
system.caches.L1Cache_Controller.IM.Data |        2199     97.99%     97.99% |          45      2.01%    100.00% (Unspecified)
system.caches.L1Cache_Controller.IM.Data::total         2244                       (Unspecified)
system.caches.L1Cache_Controller.IM.Data_all_Acks |     2477099     43.19%     43.19% |     3257808     56.81%    100.00% (Unspecified)
system.caches.L1Cache_Controller.IM.Data_all_Acks::total      5734907                       (Unspecified)
system.caches.L1Cache_Controller.SM.Inv  |           0      0.00%      0.00% |           1    100.00%    100.00% (Unspecified)
system.caches.L1Cache_Controller.SM.Inv::total            1                       (Unspecified)
system.caches.L1Cache_Controller.SM.Ack  |       11670     71.38%     71.38% |        4680     28.62%    100.00% (Unspecified)
system.caches.L1Cache_Controller.SM.Ack::total        16350                       (Unspecified)
system.caches.L1Cache_Controller.SM.Ack_all |       13869     74.59%     74.59% |        4725     25.41%    100.00% (Unspecified)
system.caches.L1Cache_Controller.SM.Ack_all::total        18594                       (Unspecified)
system.caches.L1Cache_Controller.IS_I.DataS_fromL1 |           0      0.00%      0.00% |           3    100.00%    100.00% (Unspecified)
system.caches.L1Cache_Controller.IS_I.DataS_fromL1::total            3                       (Unspecified)
system.caches.L1Cache_Controller.M_I.WB_Ack |     5961446     40.02%     40.02% |     8936393     59.98%    100.00% (Unspecified)
system.caches.L1Cache_Controller.M_I.WB_Ack::total     14897839                       (Unspecified)
system.caches.Directory_Controller.Fetch      9050678      0.00%      0.00% (Unspecified)
system.caches.Directory_Controller.Data       5402039      0.00%      0.00% (Unspecified)
system.caches.Directory_Controller.Memory_Data      9050678      0.00%      0.00% (Unspecified)
system.caches.Directory_Controller.Memory_Ack      5402039      0.00%      0.00% (Unspecified)
system.caches.Directory_Controller.CleanReplacement      3517567      0.00%      0.00% (Unspecified)
system.caches.Directory_Controller.I.Fetch      9050678      0.00%      0.00% (Unspecified)
system.caches.Directory_Controller.M.Data      5402039      0.00%      0.00% (Unspecified)
system.caches.Directory_Controller.M.CleanReplacement      3517567      0.00%      0.00% (Unspecified)
system.caches.Directory_Controller.IM.Memory_Data      9050678      0.00%      0.00% (Unspecified)
system.caches.Directory_Controller.MI.Memory_Ack      5402039      0.00%      0.00% (Unspecified)
system.caches.L2Cache_Controller.L1_GET_INSTR |       16395      8.53%      8.53% |       27340     14.23%     22.76% |       24617     12.81%     35.57% |       11088      5.77%     41.34% |       20306     10.57%     51.91% |       32364     16.84%     68.75% |       33880     17.63%     86.38% |       26162     13.62%    100.00% (Unspecified)
system.caches.L2Cache_Controller.L1_GET_INSTR::total       192152                       (Unspecified)
system.caches.L2Cache_Controller.L1_GETS |     3067781     12.57%     12.57% |     3181443     13.04%     25.61% |     3034781     12.44%     38.05% |     3058214     12.53%     50.58% |     2969569     12.17%     62.75% |     3051884     12.51%     75.26% |     3024151     12.39%     87.66% |     3012095     12.34%    100.00% (Unspecified)
system.caches.L2Cache_Controller.L1_GETS::total     24399918                       (Unspecified)
system.caches.L2Cache_Controller.L1_GETX |      720283     12.55%     12.55% |      715625     12.47%     25.03% |      712235     12.41%     37.44% |      716971     12.50%     49.94% |      713921     12.44%     62.38% |      722582     12.59%     74.98% |      719029     12.53%     87.51% |      716516     12.49%    100.00% (Unspecified)
system.caches.L2Cache_Controller.L1_GETX::total      5737162                       (Unspecified)
system.caches.L2Cache_Controller.L1_UPGRADE |        2718     13.08%     13.08% |        2252     10.84%     23.93% |         563      2.71%     26.64% |         552      2.66%     29.29% |         646      3.11%     32.40% |         559      2.69%     35.09% |       12822     61.72%     96.82% |         661      3.18%    100.00% (Unspecified)
system.caches.L2Cache_Controller.L1_UPGRADE::total        20773                       (Unspecified)
system.caches.L2Cache_Controller.L1_PUTX |     1871542     12.56%     12.56% |     1870173     12.55%     25.12% |     1850125     12.42%     37.53% |     1860723     12.49%     50.02% |     1857453     12.47%     62.49% |     1865568     12.52%     75.01% |     1857219     12.47%     87.48% |     1865036     12.52%    100.00% (Unspecified)
system.caches.L2Cache_Controller.L1_PUTX::total     14897839                       (Unspecified)
system.caches.L2Cache_Controller.L2_Replacement |      675169     12.51%     12.51% |      674867     12.50%     25.01% |      675037     12.50%     37.51% |      674881     12.50%     50.01% |      674779     12.50%     62.51% |      674865     12.50%     75.01% |      674585     12.49%     87.50% |      674658     12.50%    100.00% (Unspecified)
system.caches.L2Cache_Controller.L2_Replacement::total      5398841                       (Unspecified)
system.caches.L2Cache_Controller.L2_Replacement_clean |      440938     12.52%     12.52% |      439889     12.49%     25.02% |      439648     12.49%     37.51% |      439345     12.48%     49.98% |      440478     12.51%     62.49% |      438904     12.47%     74.96% |      440267     12.50%     87.47% |      441296     12.53%    100.00% (Unspecified)
system.caches.L2Cache_Controller.L2_Replacement_clean::total      3520765                       (Unspecified)
system.caches.L2Cache_Controller.Mem_Data |     1132491     12.51%     12.51% |     1131140     12.50%     25.01% |     1131069     12.50%     37.51% |     1130610     12.49%     50.00% |     1131641     12.50%     62.50% |     1130153     12.49%     74.99% |     1131236     12.50%     87.49% |     1132338     12.51%    100.00% (Unspecified)
system.caches.L2Cache_Controller.Mem_Data::total      9050678                       (Unspecified)
system.caches.L2Cache_Controller.Mem_Ack |     1116107     12.51%     12.51% |     1114756     12.50%     25.01% |     1114685     12.50%     37.51% |     1114226     12.49%     50.00% |     1115257     12.50%     62.50% |     1113769     12.49%     74.99% |     1114852     12.50%     87.49% |     1115954     12.51%    100.00% (Unspecified)
system.caches.L2Cache_Controller.Mem_Ack::total      8919606                       (Unspecified)
system.caches.L2Cache_Controller.WB_Data |        4717     19.36%     19.36% |        2486     10.20%     29.57% |        1177      4.83%     34.40% |        1353      5.55%     39.95% |        1403      5.76%     45.71% |        1498      6.15%     51.86% |       10226     41.98%     93.83% |        1502      6.17%    100.00% (Unspecified)
system.caches.L2Cache_Controller.WB_Data::total        24362                       (Unspecified)
system.caches.L2Cache_Controller.WB_Data_clean |       30861     12.61%     12.61% |       30430     12.44%     25.05% |       30369     12.41%     37.46% |       30148     12.32%     49.78% |       31112     12.71%     62.49% |       30794     12.58%     75.08% |       30626     12.52%     87.59% |       30357     12.41%    100.00% (Unspecified)
system.caches.L2Cache_Controller.WB_Data_clean::total       244697                       (Unspecified)
system.caches.L2Cache_Controller.Ack     |       29315     12.67%     12.67% |       28595     12.36%     25.04% |       28824     12.46%     37.50% |       28314     12.24%     49.74% |       29613     12.80%     62.54% |       28946     12.51%     75.05% |       29053     12.56%     87.61% |       28653     12.39%    100.00% (Unspecified)
system.caches.L2Cache_Controller.Ack::total       231313                       (Unspecified)
system.caches.L2Cache_Controller.Ack_all |       32212     12.70%     12.70% |       31612     12.46%     25.15% |       31518     12.42%     37.58% |       31134     12.27%     49.85% |       32351     12.75%     62.60% |       31625     12.46%     75.06% |       31728     12.50%     87.57% |       31548     12.43%    100.00% (Unspecified)
system.caches.L2Cache_Controller.Ack_all::total       253728                       (Unspecified)
system.caches.L2Cache_Controller.Unblock |       34882     13.20%     13.20% |       32415     12.27%     25.47% |       31108     11.77%     37.24% |       30865     11.68%     48.92% |       32001     12.11%     61.03% |       31528     11.93%     72.96% |       40259     15.24%     88.20% |       31188     11.80%    100.00% (Unspecified)
system.caches.L2Cache_Controller.Unblock::total       264246                       (Unspecified)
system.caches.L2Cache_Controller.Exclusive_Unblock |     1913191     12.58%     12.58% |     1908582     12.55%     25.13% |     1887067     12.41%     37.53% |     1897682     12.48%     50.01% |     1895302     12.46%     62.47% |     1903249     12.51%     74.98% |     1903425     12.51%     87.49% |     1902325     12.51%    100.00% (Unspecified)
system.caches.L2Cache_Controller.Exclusive_Unblock::total     15210823                       (Unspecified)
system.caches.L2Cache_Controller.NP.L1_GET_INSTR |        4052     12.73%     12.73% |        4386     13.78%     26.50% |        4013     12.60%     39.11% |        3741     11.75%     50.86% |        4012     12.60%     63.46% |        3731     11.72%     75.18% |        3909     12.28%     87.46% |        3994     12.54%    100.00% (Unspecified)
system.caches.L2Cache_Controller.NP.L1_GET_INSTR::total        31838                       (Unspecified)
system.caches.L2Cache_Controller.NP.L1_GETS |      546269     12.52%     12.52% |      545042     12.49%     25.00% |      545319     12.49%     37.50% |      545119     12.49%     49.99% |      545934     12.51%     62.49% |      544662     12.48%     74.97% |      545700     12.50%     87.48% |      546675     12.52%    100.00% (Unspecified)
system.caches.L2Cache_Controller.NP.L1_GETS::total      4364720                       (Unspecified)
system.caches.L2Cache_Controller.NP.L1_GETX |      582170     12.51%     12.51% |      581712     12.50%     25.01% |      581737     12.50%     37.51% |      581750     12.50%     50.01% |      581695     12.50%     62.51% |      581760     12.50%     75.01% |      581627     12.50%     87.50% |      581669     12.50%    100.00% (Unspecified)
system.caches.L2Cache_Controller.NP.L1_GETX::total      4654120                       (Unspecified)
system.caches.L2Cache_Controller.SS.L1_GET_INSTR |       11806      7.54%      7.54% |       22422     14.33%     21.87% |       20108     12.85%     34.72% |        6935      4.43%     39.16% |       15771     10.08%     49.23% |       28145     17.99%     67.22% |       29540     18.88%     86.10% |       21753     13.90%    100.00% (Unspecified)
system.caches.L2Cache_Controller.SS.L1_GET_INSTR::total       156480                       (Unspecified)
system.caches.L2Cache_Controller.SS.L1_GETS |     1842605     12.56%     12.56% |     1958242     13.35%     25.90% |     1829350     12.47%     38.37% |     1847133     12.59%     50.96% |     1756792     11.97%     62.93% |     1840211     12.54%     75.48% |     1802672     12.29%     87.76% |     1795710     12.24%    100.00% (Unspecified)
system.caches.L2Cache_Controller.SS.L1_GETS::total     14672715                       (Unspecified)
system.caches.L2Cache_Controller.SS.L1_GETX |        1124     50.09%     50.09% |           1      0.04%     50.13% |           3      0.13%     50.27% |           1      0.04%     50.31% |          49      2.18%     52.50% |           1      0.04%     52.54% |        1063     47.37%     99.91% |           2      0.09%    100.00% (Unspecified)
system.caches.L2Cache_Controller.SS.L1_GETX::total         2244                       (Unspecified)
system.caches.L2Cache_Controller.SS.L1_UPGRADE |        2717     16.62%     16.62% |        2252     13.77%     30.39% |         563      3.44%     33.83% |         552      3.38%     37.21% |         646      3.95%     41.16% |         559      3.42%     44.58% |        8400     51.38%     95.96% |         661      4.04%    100.00% (Unspecified)
system.caches.L2Cache_Controller.SS.L1_UPGRADE::total        16350                       (Unspecified)
system.caches.L2Cache_Controller.SS.L2_Replacement |         188     12.53%     12.53% |         202     13.47%     26.00% |         195     13.00%     39.00% |         176     11.73%     50.73% |         200     13.33%     64.07% |         189     12.60%     76.67% |         176     11.73%     88.40% |         174     11.60%    100.00% (Unspecified)
system.caches.L2Cache_Controller.SS.L2_Replacement::total         1500                       (Unspecified)
system.caches.L2Cache_Controller.SS.L2_Replacement_clean |       30837     12.68%     12.68% |       30220     12.42%     25.10% |       30270     12.44%     37.54% |       29820     12.26%     49.80% |       31029     12.75%     62.55% |       30353     12.48%     75.03% |       30442     12.51%     87.54% |       30307     12.46%    100.00% (Unspecified)
system.caches.L2Cache_Controller.SS.L2_Replacement_clean::total       243278                       (Unspecified)
system.caches.L2Cache_Controller.M.L1_GETS |      643970     12.64%     12.64% |      645701     12.68%     25.32% |      628977     12.35%     37.67% |      635069     12.47%     50.14% |      634823     12.47%     62.61% |      635464     12.48%     75.09% |      630308     12.38%     87.46% |      638498     12.54%    100.00% (Unspecified)
system.caches.L2Cache_Controller.M.L1_GETS::total      5092810                       (Unspecified)
system.caches.L2Cache_Controller.M.L1_GETX |      132762     12.63%     12.63% |      130227     12.39%     25.02% |      126804     12.06%     37.09% |      131538     12.51%     49.60% |      128617     12.24%     61.84% |      137167     13.05%     74.89% |      132770     12.63%     87.52% |      131162     12.48%    100.00% (Unspecified)
system.caches.L2Cache_Controller.M.L1_GETX::total      1051047                       (Unspecified)
system.caches.L2Cache_Controller.M.L2_Replacement |      674735     12.51%     12.51% |      674504     12.50%     25.01% |      674680     12.50%     37.51% |      674480     12.50%     50.01% |      674407     12.50%     62.51% |      674410     12.50%     75.01% |      674187     12.49%     87.50% |      674266     12.50%    100.00% (Unspecified)
system.caches.L2Cache_Controller.M.L2_Replacement::total      5395669                       (Unspecified)
system.caches.L2Cache_Controller.M.L2_Replacement_clean |      408464     12.51%     12.51% |      408139     12.50%     25.01% |      408049     12.50%     37.50% |      407976     12.49%     50.00% |      407985     12.49%     62.49% |      406970     12.46%     74.96% |      408344     12.51%     87.46% |      409469     12.54%    100.00% (Unspecified)
system.caches.L2Cache_Controller.M.L2_Replacement_clean::total      3265396                       (Unspecified)
system.caches.L2Cache_Controller.MT.L1_GETS |       34882     13.20%     13.20% |       32415     12.27%     25.47% |       31108     11.77%     37.24% |       30865     11.68%     48.92% |       32001     12.11%     61.03% |       31528     11.93%     72.96% |       40259     15.24%     88.20% |       31188     11.80%    100.00% (Unspecified)
system.caches.L2Cache_Controller.MT.L1_GETS::total       264246                       (Unspecified)
system.caches.L2Cache_Controller.MT.L1_GETX |        4226     14.21%     14.21% |        3683     12.38%     26.59% |        3691     12.41%     39.00% |        3680     12.37%     51.38% |        3557     11.96%     63.34% |        3653     12.28%     75.62% |        3568     12.00%     87.62% |        3682     12.38%    100.00% (Unspecified)
system.caches.L2Cache_Controller.MT.L1_GETX::total        29740                       (Unspecified)
system.caches.L2Cache_Controller.MT.L1_PUTX |     1871542     12.56%     12.56% |     1870173     12.55%     25.12% |     1850125     12.42%     37.53% |     1860723     12.49%     50.02% |     1857453     12.47%     62.49% |     1865568     12.52%     75.01% |     1857219     12.47%     87.48% |     1865036     12.52%    100.00% (Unspecified)
system.caches.L2Cache_Controller.MT.L1_PUTX::total     14897839                       (Unspecified)
system.caches.L2Cache_Controller.MT.L2_Replacement |         246     14.71%     14.71% |         161      9.63%     24.34% |         162      9.69%     34.03% |         225     13.46%     47.49% |         172     10.29%     57.78% |         266     15.91%     73.68% |         222     13.28%     86.96% |         218     13.04%    100.00% (Unspecified)
system.caches.L2Cache_Controller.MT.L2_Replacement::total         1672                       (Unspecified)
system.caches.L2Cache_Controller.MT.L2_Replacement_clean |        1637     13.54%     13.54% |        1530     12.65%     26.19% |        1329     10.99%     37.18% |        1549     12.81%     50.00% |        1464     12.11%     62.10% |        1581     13.08%     75.18% |        1481     12.25%     87.43% |        1520     12.57%    100.00% (Unspecified)
system.caches.L2Cache_Controller.MT.L2_Replacement_clean::total        12091                       (Unspecified)
system.caches.L2Cache_Controller.M_I.L1_GET_INSTR |           0      0.00%      0.00% |          14     29.17%     29.17% |          22     45.83%     75.00% |           5     10.42%     85.42% |           3      6.25%     91.67% |           2      4.17%     95.83% |           1      2.08%     97.92% |           1      2.08%    100.00% (Unspecified)
system.caches.L2Cache_Controller.M_I.L1_GET_INSTR::total           48                       (Unspecified)
system.caches.L2Cache_Controller.M_I.L1_GETS |           1     16.67%     16.67% |           1     16.67%     33.33% |           0      0.00%     33.33% |           0      0.00%     33.33% |           0      0.00%     33.33% |           1     16.67%     50.00% |           3     50.00%    100.00% |           0      0.00%    100.00% (Unspecified)
system.caches.L2Cache_Controller.M_I.L1_GETS::total            6                       (Unspecified)
system.caches.L2Cache_Controller.M_I.L1_GETX |           0      0.00%      0.00% |           0      0.00%      0.00% |           0      0.00%      0.00% |           0      0.00%      0.00% |           1     33.33%     33.33% |           1     33.33%     66.67% |           1     33.33%    100.00% |           0      0.00%    100.00% (Unspecified)
system.caches.L2Cache_Controller.M_I.L1_GETX::total            3                       (Unspecified)
system.caches.L2Cache_Controller.M_I.Mem_Ack |     1116107     12.51%     12.51% |     1114756     12.50%     25.01% |     1114685     12.50%     37.51% |     1114226     12.49%     50.00% |     1115257     12.50%     62.50% |     1113769     12.49%     74.99% |     1114852     12.50%     87.49% |     1115954     12.51%    100.00% (Unspecified)
system.caches.L2Cache_Controller.M_I.Mem_Ack::total      8919606                       (Unspecified)
system.caches.L2Cache_Controller.MT_I.WB_Data |         231     14.30%     14.30% |         155      9.60%     23.90% |         155      9.60%     33.50% |         221     13.68%     47.18% |         166     10.28%     57.46% |         259     16.04%     73.50% |         216     13.37%     86.87% |         212     13.13%    100.00% (Unspecified)
system.caches.L2Cache_Controller.MT_I.WB_Data::total         1615                       (Unspecified)
system.caches.L2Cache_Controller.MT_I.Ack_all |          15     26.32%     26.32% |           6     10.53%     36.84% |           7     12.28%     49.12% |           4      7.02%     56.14% |           6     10.53%     66.67% |           7     12.28%     78.95% |           6     10.53%     89.47% |           6     10.53%    100.00% (Unspecified)
system.caches.L2Cache_Controller.MT_I.Ack_all::total           57                       (Unspecified)
system.caches.L2Cache_Controller.MCT_I.WB_Data |         465     14.54%     14.54% |         346     10.82%     25.36% |         283      8.85%     34.21% |         415     12.98%     47.19% |         348     10.88%     58.07% |         505     15.79%     73.86% |         377     11.79%     85.65% |         459     14.35%    100.00% (Unspecified)
system.caches.L2Cache_Controller.MCT_I.WB_Data::total         3198                       (Unspecified)
system.caches.L2Cache_Controller.MCT_I.Ack_all |        1172     13.18%     13.18% |        1184     13.31%     26.49% |        1046     11.76%     38.25% |        1134     12.75%     51.01% |        1116     12.55%     63.56% |        1076     12.10%     75.66% |        1104     12.41%     88.07% |        1061     11.93%    100.00% (Unspecified)
system.caches.L2Cache_Controller.MCT_I.Ack_all::total         8893                       (Unspecified)
system.caches.L2Cache_Controller.I_I.Ack |       29127     12.67%     12.67% |       28393     12.35%     25.03% |       28629     12.46%     37.49% |       28138     12.24%     49.73% |       29413     12.80%     62.53% |       28757     12.51%     75.04% |       28877     12.57%     87.61% |       28479     12.39%    100.00% (Unspecified)
system.caches.L2Cache_Controller.I_I.Ack::total       229813                       (Unspecified)
system.caches.L2Cache_Controller.I_I.Ack_all |       30837     12.68%     12.68% |       30220     12.42%     25.10% |       30270     12.44%     37.54% |       29820     12.26%     49.80% |       31029     12.75%     62.55% |       30353     12.48%     75.03% |       30442     12.51%     87.54% |       30307     12.46%    100.00% (Unspecified)
system.caches.L2Cache_Controller.I_I.Ack_all::total       243278                       (Unspecified)
system.caches.L2Cache_Controller.S_I.Ack |         188     12.53%     12.53% |         202     13.47%     26.00% |         195     13.00%     39.00% |         176     11.73%     50.73% |         200     13.33%     64.07% |         189     12.60%     76.67% |         176     11.73%     88.40% |         174     11.60%    100.00% (Unspecified)
system.caches.L2Cache_Controller.S_I.Ack::total         1500                       (Unspecified)
system.caches.L2Cache_Controller.S_I.Ack_all |         188     12.53%     12.53% |         202     13.47%     26.00% |         195     13.00%     39.00% |         176     11.73%     50.73% |         200     13.33%     64.07% |         189     12.60%     76.67% |         176     11.73%     88.40% |         174     11.60%    100.00% (Unspecified)
system.caches.L2Cache_Controller.S_I.Ack_all::total         1500                       (Unspecified)
system.caches.L2Cache_Controller.ISS.L1_GETS |          47     22.60%     22.60% |          36     17.31%     39.90% |          27     12.98%     52.88% |          27     12.98%     65.87% |          19      9.13%     75.00% |          17      8.17%     83.17% |          11      5.29%     88.46% |          24     11.54%    100.00% (Unspecified)
system.caches.L2Cache_Controller.ISS.L1_GETS::total          208                       (Unspecified)
system.caches.L2Cache_Controller.ISS.Mem_Data |      546222     12.52%     12.52% |      545006     12.49%     25.00% |      545292     12.49%     37.50% |      545092     12.49%     49.99% |      545915     12.51%     62.49% |      544645     12.48%     74.97% |      545689     12.50%     87.48% |      546651     12.52%    100.00% (Unspecified)
system.caches.L2Cache_Controller.ISS.Mem_Data::total      4364512                       (Unspecified)
system.caches.L2Cache_Controller.IS.L1_GET_INSTR |         537     14.18%     14.18% |         518     13.68%     27.87% |         474     12.52%     40.39% |         407     10.75%     51.14% |         520     13.73%     64.87% |         486     12.84%     77.71% |         430     11.36%     89.06% |         414     10.94%    100.00% (Unspecified)
system.caches.L2Cache_Controller.IS.L1_GET_INSTR::total         3786                       (Unspecified)
system.caches.L2Cache_Controller.IS.Mem_Data |        4099     12.79%     12.79% |        4422     13.80%     26.59% |        4040     12.61%     39.20% |        3768     11.76%     50.95% |        4031     12.58%     63.53% |        3748     11.70%     75.23% |        3920     12.23%     87.46% |        4018     12.54%    100.00% (Unspecified)
system.caches.L2Cache_Controller.IS.Mem_Data::total        32046                       (Unspecified)
system.caches.L2Cache_Controller.IM.L1_GETX |           1     16.67%     16.67% |           1     16.67%     33.33% |           0      0.00%     33.33% |           1     16.67%     50.00% |           2     33.33%     83.33% |           0      0.00%     83.33% |           0      0.00%     83.33% |           1     16.67%    100.00% (Unspecified)
system.caches.L2Cache_Controller.IM.L1_GETX::total            6                       (Unspecified)
system.caches.L2Cache_Controller.IM.Mem_Data |      582170     12.51%     12.51% |      581712     12.50%     25.01% |      581737     12.50%     37.51% |      581750     12.50%     50.01% |      581695     12.50%     62.51% |      581760     12.50%     75.01% |      581627     12.50%     87.50% |      581669     12.50%    100.00% (Unspecified)
system.caches.L2Cache_Controller.IM.Mem_Data::total      4654120                       (Unspecified)
system.caches.L2Cache_Controller.SS_MB.L1_GETS |           4      0.08%      0.08% |           0      0.00%      0.08% |           0      0.00%      0.08% |           1      0.02%      0.10% |           0      0.00%      0.10% |           0      0.00%      0.10% |        5196     99.90%    100.00% |           0      0.00%    100.00% (Unspecified)
system.caches.L2Cache_Controller.SS_MB.L1_GETS::total         5201                       (Unspecified)
system.caches.L2Cache_Controller.SS_MB.L1_GETX |           0      0.00%      0.00% |           0      0.00%      0.00% |           0      0.00%      0.00% |           1    100.00%    100.00% |           0      0.00%    100.00% |           0      0.00%    100.00% |           0      0.00%    100.00% |           0      0.00%    100.00% (Unspecified)
system.caches.L2Cache_Controller.SS_MB.L1_GETX::total            1                       (Unspecified)
system.caches.L2Cache_Controller.SS_MB.L1_UPGRADE |           1    100.00%    100.00% |           0      0.00%    100.00% |           0      0.00%    100.00% |           0      0.00%    100.00% |           0      0.00%    100.00% |           0      0.00%    100.00% |           0      0.00%    100.00% |           0      0.00%    100.00% (Unspecified)
system.caches.L2Cache_Controller.SS_MB.L1_UPGRADE::total            1                       (Unspecified)
system.caches.L2Cache_Controller.SS_MB.Exclusive_Unblock |        3841     20.66%     20.66% |        2253     12.12%     32.77% |         566      3.04%     35.82% |         553      2.97%     38.79% |         695      3.74%     42.53% |         560      3.01%     45.54% |        9463     50.89%     96.43% |         663      3.57%    100.00% (Unspecified)
system.caches.L2Cache_Controller.SS_MB.Exclusive_Unblock::total        18594                       (Unspecified)
system.caches.L2Cache_Controller.MT_MB.L1_GETS |           3     25.00%     25.00% |           6     50.00%     75.00% |           0      0.00%     75.00% |           0      0.00%     75.00% |           0      0.00%     75.00% |           1      8.33%     83.33% |           2     16.67%    100.00% |           0      0.00%    100.00% (Unspecified)
system.caches.L2Cache_Controller.MT_MB.L1_GETS::total           12                       (Unspecified)
system.caches.L2Cache_Controller.MT_MB.L1_GETX |           0      0.00%      0.00% |           1    100.00%    100.00% |           0      0.00%    100.00% |           0      0.00%    100.00% |           0      0.00%    100.00% |           0      0.00%    100.00% |           0      0.00%    100.00% |           0      0.00%    100.00% (Unspecified)
system.caches.L2Cache_Controller.MT_MB.L1_GETX::total            1                       (Unspecified)
system.caches.L2Cache_Controller.MT_MB.Exclusive_Unblock |     1909350     12.57%     12.57% |     1906329     12.55%     25.12% |     1886501     12.42%     37.53% |     1897129     12.49%     50.02% |     1894607     12.47%     62.49% |     1902689     12.52%     75.02% |     1893962     12.47%     87.48% |     1901662     12.52%    100.00% (Unspecified)
system.caches.L2Cache_Controller.MT_MB.Exclusive_Unblock::total     15192229                       (Unspecified)
system.caches.L2Cache_Controller.MT_IIB.WB_Data |        4021     20.57%     20.57% |        1985     10.15%     30.72% |         739      3.78%     34.50% |         717      3.67%     38.17% |         889      4.55%     42.72% |         734      3.75%     46.47% |        9633     49.28%     95.75% |         831      4.25%    100.00% (Unspecified)
system.caches.L2Cache_Controller.MT_IIB.WB_Data::total        19549                       (Unspecified)
system.caches.L2Cache_Controller.MT_IIB.WB_Data_clean |       30861     12.61%     12.61% |       30430     12.44%     25.05% |       30369     12.41%     37.46% |       30148     12.32%     49.78% |       31112     12.71%     62.49% |       30794     12.58%     75.08% |       30626     12.52%     87.59% |       30357     12.41%    100.00% (Unspecified)
system.caches.L2Cache_Controller.MT_IIB.WB_Data_clean::total       244697                       (Unspecified)
system.caches.L2Cache_Controller.MT_SB.L1_UPGRADE |           0      0.00%      0.00% |           0      0.00%      0.00% |           0      0.00%      0.00% |           0      0.00%      0.00% |           0      0.00%      0.00% |           0      0.00%      0.00% |        4422    100.00%    100.00% |           0      0.00%    100.00% (Unspecified)
system.caches.L2Cache_Controller.MT_SB.L1_UPGRADE::total         4422                       (Unspecified)
system.caches.L2Cache_Controller.MT_SB.Unblock |       34882     13.20%     13.20% |       32415     12.27%     25.47% |       31108     11.77%     37.24% |       30865     11.68%     48.92% |       32001     12.11%     61.03% |       31528     11.93%     72.96% |       40259     15.24%     88.20% |       31188     11.80%    100.00% (Unspecified)
system.caches.L2Cache_Controller.MT_SB.Unblock::total       264246                       (Unspecified)
system.caches.RequestType.LD.latency_hist_seqr::bucket_size          512                       (Unspecified)
system.caches.RequestType.LD.latency_hist_seqr::max_bucket         5119                       (Unspecified)
system.caches.RequestType.LD.latency_hist_seqr::samples    626372388                       (Unspecified)
system.caches.RequestType.LD.latency_hist_seqr::mean     5.494965                       (Unspecified)
system.caches.RequestType.LD.latency_hist_seqr::gmean     1.135828                       (Unspecified)
system.caches.RequestType.LD.latency_hist_seqr::stdev    53.457167                       (Unspecified)
system.caches.RequestType.LD.latency_hist_seqr |   623803902     99.59%     99.59% |     2430346      0.39%     99.98% |       44319      0.01%     99.99% |       74497      0.01%    100.00% |       18893      0.00%    100.00% |         418      0.00%    100.00% |          13      0.00%    100.00% |           0      0.00%    100.00% |           0      0.00%    100.00% |           0      0.00%    100.00% (Unspecified)
system.caches.RequestType.LD.latency_hist_seqr::total    626372388                       (Unspecified)
[...]
system.timingCpu0.exec_context.thread_0.statExecutedInstType::SimdSha1Hash2            0      0.00%     78.93% # Class of executed instruction. (Count)
system.timingCpu0.exec_context.thread_0.statExecutedInstType::SimdSha256Hash            0      0.00%     78.93% # Class of executed instruction. (Count)
system.timingCpu0.exec_context.thread_0.statExecutedInstType::SimdSha256Hash2            0      0.00%     78.93% # Class of executed instruction. (Count)
system.timingCpu0.exec_context.thread_0.statExecutedInstType::SimdShaSigma2            0      0.00%     78.93% # Class of executed instruction. (Count)
system.timingCpu0.exec_context.thread_0.statExecutedInstType::SimdShaSigma3            0      0.00%     78.93% # Class of executed instruction. (Count)
system.timingCpu0.exec_context.thread_0.statExecutedInstType::SimdPredAlu            0      0.00%     78.93% # Class of executed instruction. (Count)
system.timingCpu0.exec_context.thread_0.statExecutedInstType::MemRead    255275290     13.64%     92.56% # Class of executed instruction. (Count)
system.timingCpu0.exec_context.thread_0.statExecutedInstType::MemWrite    136930505      7.31%     99.88% # Class of executed instruction. (Count)
system.timingCpu0.exec_context.thread_0.statExecutedInstType::FloatMemRead      1171753      0.06%     99.94% # Class of executed instruction. (Count)
system.timingCpu0.exec_context.thread_0.statExecutedInstType::FloatMemWrite      1163459      0.06%    100.00% # Class of executed instruction. (Count)
system.timingCpu0.exec_context.thread_0.statExecutedInstType::IprAccess            0      0.00%    100.00% # Class of executed instruction. (Count)
system.timingCpu0.exec_context.thread_0.statExecutedInstType::InstPrefetch            0      0.00%    100.00% # Class of executed instruction. (Count)
system.timingCpu0.exec_context.thread_0.statExecutedInstType::total   1872191466                       # Class of executed instruction. (Count)
system.timingCpu0.mmu.dtb.rdAccesses        261075558                       # TLB accesses on read requests (Count)
system.timingCpu0.mmu.dtb.wrAccesses        138325859                       # TLB accesses on write requests (Count)
system.timingCpu0.mmu.dtb.rdMisses            4574454                       # TLB misses on read requests (Count)
system.timingCpu0.mmu.dtb.wrMisses             174840                       # TLB misses on write requests (Count)
system.timingCpu0.mmu.dtb.walker.power_state.pwrStateResidencyTicks::UNDEFINED 163682526979500                       # Cumulative time (in ticks) in various power states (Tick)
system.timingCpu0.mmu.itb.rdAccesses                0                       # TLB accesses on read requests (Count)
system.timingCpu0.mmu.itb.wrAccesses       1447283756                       # TLB accesses on write requests (Count)
system.timingCpu0.mmu.itb.rdMisses                  0                       # TLB misses on read requests (Count)
system.timingCpu0.mmu.itb.wrMisses               5746                       # TLB misses on write requests (Count)
system.timingCpu0.mmu.itb.walker.power_state.pwrStateResidencyTicks::UNDEFINED 163682526979500                       # Cumulative time (in ticks) in various power states (Tick)
system.timingCpu0.power_state.numTransitions          842                       # Number of power state transitions (Count)
system.timingCpu0.power_state.ticksClkGated::samples          421                       # Distribution of time spent in the clock gated state (Tick)
system.timingCpu0.power_state.ticksClkGated::mean 983469609.857482                       # Distribution of time spent in the clock gated state (Tick)
system.timingCpu0.power_state.ticksClkGated::stdev 89040695.655489                       # Distribution of time spent in the clock gated state (Tick)
system.timingCpu0.power_state.ticksClkGated::1000-5e+10          421    100.00%    100.00% # Distribution of time spent in the clock gated state (Tick)
system.timingCpu0.power_state.ticksClkGated::min_value    211734250                       # Distribution of time spent in the clock gated state (Tick)
system.timingCpu0.power_state.ticksClkGated::max_value    997919750                       # Distribution of time spent in the clock gated state (Tick)
system.timingCpu0.power_state.ticksClkGated::total          421                       # Distribution of time spent in the clock gated state (Tick)
system.timingCpu0.power_state.pwrStateResidencyTicks::ON 1585187918500                       # Cumulative time (in ticks) in various power states (Tick)
system.timingCpu0.power_state.pwrStateResidencyTicks::CLK_GATED 414040705750                       # Cumulative time (in ticks) in various power states (Tick)
system.timingCpu0.power_state.pwrStateResidencyTicks::OFF 161683298355250                       # Cumulative time (in ticks) in various power states (Tick)
system.timingCpu0.thread_0.numInsts                 0                       # Number of Instructions committed (Count)
system.timingCpu0.thread_0.numOps                   0                       # Number of Ops committed (Count)
system.timingCpu0.thread_0.numMemRefs               0                       # Number of Memory References (Count)
system.timingCpu1.numCycles                8000000000                       # Number of cpu cycles simulated (Cycle)
system.timingCpu1.numWorkItemsStarted               0                       # Number of work items this cpu started (Count)
system.timingCpu1.numWorkItemsCompleted             0                       # Number of work items this cpu completed (Count)
system.timingCpu1.exec_context.thread_0.numInsts   1423594647                       # Number of instructions committed (Count)
system.timingCpu1.exec_context.thread_0.numOps   2341487752                       # Number of ops (including micro ops) committed (Count)
system.timingCpu1.exec_context.thread_0.numIntAluAccesses   2318344760                       # Number of integer alu accesses (Count)
system.timingCpu1.exec_context.thread_0.numFpAluAccesses      7577186                       # Number of float alu accesses (Count)
system.timingCpu1.exec_context.thread_0.numVecAluAccesses            0                       # Number of vector alu accesses (Count)
system.timingCpu1.exec_context.thread_0.numCallsReturns      4687558                       # Number of times a function call or return occured (Count)
system.timingCpu1.exec_context.thread_0.numCondCtrlInsts    275315516                       # Number of instructions that are conditional controls (Count)
system.timingCpu1.exec_context.thread_0.numIntInsts   2318344760                       # Number of integer instructions (Count)
system.timingCpu1.exec_context.thread_0.numFpInsts      7577186                       # Number of float instructions (Count)
system.timingCpu1.exec_context.thread_0.numVecInsts            0                       # Number of vector instructions (Count)
system.timingCpu1.exec_context.thread_0.numIntRegReads   2779675187                       # Number of times the integer registers were read (Count)
system.timingCpu1.exec_context.thread_0.numIntRegWrites   1565347717                       # Number of times the integer registers were written (Count)
system.timingCpu1.exec_context.thread_0.numFpRegReads     12705306                       # Number of times the floating registers were read (Count)
system.timingCpu1.exec_context.thread_0.numFpRegWrites      6410645                       # Number of times the floating registers were written (Count)
system.timingCpu1.exec_context.thread_0.numVecRegReads            0                       # Number of times the vector registers were read (Count)
system.timingCpu1.exec_context.thread_0.numVecRegWrites            0                       # Number of times the vector registers were written (Count)
system.timingCpu1.exec_context.thread_0.numVecPredRegReads            0                       # Number of times the predicate registers were read (Count)
system.timingCpu1.exec_context.thread_0.numVecPredRegWrites            0                       # Number of times the predicate registers were written (Count)
system.timingCpu1.exec_context.thread_0.numCCRegReads   1401225246                       # Number of times the CC registers were read (Count)
system.timingCpu1.exec_context.thread_0.numCCRegWrites    829692076                       # Number of times the CC registers were written (Count)
system.timingCpu1.exec_context.thread_0.numMiscRegReads   1163627385                       # Number of times the Misc registers were read (Count)
system.timingCpu1.exec_context.thread_0.numMiscRegWrites       116314                       # Number of times the Misc registers were written (Count)
system.timingCpu1.exec_context.thread_0.numMemRefs    500655418                       # Number of memory refs (Count)
system.timingCpu1.exec_context.thread_0.numLoadInsts    333172066                       # Number of load instructions (Count)
system.timingCpu1.exec_context.thread_0.numStoreInsts    167483352                       # Number of store instructions (Count)
system.timingCpu1.exec_context.thread_0.numIdleCycles            0                       # Number of idle cycles (Cycle)
system.timingCpu1.exec_context.thread_0.numBusyCycles   8000000000                       # Number of busy cycles (Cycle)
system.timingCpu1.exec_context.thread_0.notIdleFraction            1                       # Percentage of non-idle cycles (Ratio)
system.timingCpu1.exec_context.thread_0.idleFraction            0                       # Percentage of idle cycles (Ratio)
system.timingCpu1.exec_context.thread_0.numBranches    332892655                       # Number of branches fetched (Count)
system.timingCpu1.exec_context.thread_0.statExecutedInstType::No_OpClass     17515901      0.75%      0.75% # Class of executed instruction. (Count)
system.timingCpu1.exec_context.thread_0.statExecutedInstType::IntAlu   1819448491     77.70%     78.45% # Class of executed instruction. (Count)
system.timingCpu1.exec_context.thread_0.statExecutedInstType::IntMult       102430      0.00%     78.46% # Class of executed instruction. (Count)
system.timingCpu1.exec_context.thread_0.statExecutedInstType::IntDiv        94780      0.00%     78.46% # Class of executed instruction. (Count)
system.timingCpu1.exec_context.thread_0.statExecutedInstType::FloatAdd          133      0.00%     78.46% # Class of executed instruction. (Count)
system.timingCpu1.exec_context.thread_0.statExecutedInstType::FloatCmp            0      0.00%     78.46% # Class of executed instruction. (Count)
system.timingCpu1.exec_context.thread_0.statExecutedInstType::FloatCvt          192      0.00%     78.46% # Class of executed instruction. (Count)
system.timingCpu1.exec_context.thread_0.statExecutedInstType::FloatMult            0      0.00%     78.46% # Class of executed instruction. (Count)
system.timingCpu1.exec_context.thread_0.statExecutedInstType::FloatMultAcc            0      0.00%     78.46% # Class of executed instruction. (Count)
system.timingCpu1.exec_context.thread_0.statExecutedInstType::FloatDiv            0      0.00%     78.46% # Class of executed instruction. (Count)
system.timingCpu1.exec_context.thread_0.statExecutedInstType::FloatMisc            0      0.00%     78.46% # Class of executed instruction. (Count)
system.timingCpu1.exec_context.thread_0.statExecutedInstType::FloatSqrt            0      0.00%     78.46% # Class of executed instruction. (Count)
system.timingCpu1.exec_context.thread_0.statExecutedInstType::SimdAdd      1572942      0.07%     78.53% # Class of executed instruction. (Count)
system.timingCpu1.exec_context.thread_0.statExecutedInstType::SimdAddAcc            0      0.00%     78.53% # Class of executed instruction. (Count)
system.timingCpu1.exec_context.thread_0.statExecutedInstType::SimdAlu          749      0.00%     78.53% # Class of executed instruction. (Count)
system.timingCpu1.exec_context.thread_0.statExecutedInstType::SimdCmp            0      0.00%     78.53% # Class of executed instruction. (Count)
system.timingCpu1.exec_context.thread_0.statExecutedInstType::SimdCvt       524782      0.02%     78.55% # Class of executed instruction. (Count)
system.timingCpu1.exec_context.thread_0.statExecutedInstType::SimdMisc      1049253      0.04%     78.60% # Class of executed instruction. (Count)
system.timingCpu1.exec_context.thread_0.statExecutedInstType::SimdMult            0      0.00%     78.60% # Class of executed instruction. (Count)
system.timingCpu1.exec_context.thread_0.statExecutedInstType::SimdMultAcc            0      0.00%     78.60% # Class of executed instruction. (Count)
system.timingCpu1.exec_context.thread_0.statExecutedInstType::SimdShift       524355      0.02%     78.62% # Class of executed instruction. (Count)
system.timingCpu1.exec_context.thread_0.statExecutedInstType::SimdShiftAcc            0      0.00%     78.62% # Class of executed instruction. (Count)
system.timingCpu1.exec_context.thread_0.statExecutedInstType::SimdDiv            0      0.00%     78.62% # Class of executed instruction. (Count)
system.timingCpu1.exec_context.thread_0.statExecutedInstType::SimdSqrt            0      0.00%     78.62% # Class of executed instruction. (Count)
system.timingCpu1.exec_context.thread_0.statExecutedInstType::SimdFloatAdd            0      0.00%     78.62% # Class of executed instruction. (Count)
system.timingCpu1.exec_context.thread_0.statExecutedInstType::SimdFloatAlu            0      0.00%     78.62% # Class of executed instruction. (Count)
system.timingCpu1.exec_context.thread_0.statExecutedInstType::SimdFloatCmp            0      0.00%     78.62% # Class of executed instruction. (Count)
system.timingCpu1.exec_context.thread_0.statExecutedInstType::SimdFloatCvt            0      0.00%     78.62% # Class of executed instruction. (Count)
system.timingCpu1.exec_context.thread_0.statExecutedInstType::SimdFloatDiv            0      0.00%     78.62% # Class of executed instruction. (Count)
system.timingCpu1.exec_context.thread_0.statExecutedInstType::SimdFloatMisc            0      0.00%     78.62% # Class of executed instruction. (Count)
system.timingCpu1.exec_context.thread_0.statExecutedInstType::SimdFloatMult            0      0.00%     78.62% # Class of executed instruction. (Count)
system.timingCpu1.exec_context.thread_0.statExecutedInstType::SimdFloatMultAcc            0      0.00%     78.62% # Class of executed instruction. (Count)
system.timingCpu1.exec_context.thread_0.statExecutedInstType::SimdFloatSqrt            0      0.00%     78.62% # Class of executed instruction. (Count)
system.timingCpu1.exec_context.thread_0.statExecutedInstType::SimdReduceAdd            0      0.00%     78.62% # Class of executed instruction. (Count)
system.timingCpu1.exec_context.thread_0.statExecutedInstType::SimdReduceAlu            0      0.00%     78.62% # Class of executed instruction. (Count)
system.timingCpu1.exec_context.thread_0.statExecutedInstType::SimdReduceCmp            0      0.00%     78.62% # Class of executed instruction. (Count)
system.timingCpu1.exec_context.thread_0.statExecutedInstType::SimdFloatReduceAdd            0      0.00%     78.62% # Class of executed instruction. (Count)
system.timingCpu1.exec_context.thread_0.statExecutedInstType::SimdFloatReduceCmp            0      0.00%     78.62% # Class of executed instruction. (Count)
system.timingCpu1.exec_context.thread_0.statExecutedInstType::SimdAes            0      0.00%     78.62% # Class of executed instruction. (Count)
system.timingCpu1.exec_context.thread_0.statExecutedInstType::SimdAesMix            0      0.00%     78.62% # Class of executed instruction. (Count)
system.timingCpu1.exec_context.thread_0.statExecutedInstType::SimdSha1Hash            0      0.00%     78.62% # Class of executed instruction. (Count)
system.timingCpu1.exec_context.thread_0.statExecutedInstType::SimdSha1Hash2            0      0.00%     78.62% # Class of executed instruction. (Count)
system.timingCpu1.exec_context.thread_0.statExecutedInstType::SimdSha256Hash            0      0.00%     78.62% # Class of executed instruction. (Count)
system.timingCpu1.exec_context.thread_0.statExecutedInstType::SimdSha256Hash2            0      0.00%     78.62% # Class of executed instruction. (Count)
system.timingCpu1.exec_context.thread_0.statExecutedInstType::SimdShaSigma2            0      0.00%     78.62% # Class of executed instruction. (Count)
system.timingCpu1.exec_context.thread_0.statExecutedInstType::SimdShaSigma3            0      0.00%     78.62% # Class of executed instruction. (Count)
system.timingCpu1.exec_context.thread_0.statExecutedInstType::SimdPredAlu            0      0.00%     78.62% # Class of executed instruction. (Count)
system.timingCpu1.exec_context.thread_0.statExecutedInstType::MemRead    331482049     14.16%     92.77% # Class of executed instruction. (Count)
system.timingCpu1.exec_context.thread_0.statExecutedInstType::MemWrite    166317327      7.10%     99.88% # Class of executed instruction. (Count)
system.timingCpu1.exec_context.thread_0.statExecutedInstType::FloatMemRead      1690017      0.07%     99.95% # Class of executed instruction. (Count)
system.timingCpu1.exec_context.thread_0.statExecutedInstType::FloatMemWrite      1166025      0.05%    100.00% # Class of executed instruction. (Count)
system.timingCpu1.exec_context.thread_0.statExecutedInstType::IprAccess            0      0.00%    100.00% # Class of executed instruction. (Count)
system.timingCpu1.exec_context.thread_0.statExecutedInstType::InstPrefetch            0      0.00%    100.00% # Class of executed instruction. (Count)
system.timingCpu1.exec_context.thread_0.statExecutedInstType::total   2341489426                       # Class of executed instruction. (Count)
system.timingCpu1.mmu.dtb.rdAccesses        337865785                       # TLB accesses on read requests (Count)
system.timingCpu1.mmu.dtb.wrAccesses        167764209                       # TLB accesses on write requests (Count)
system.timingCpu1.mmu.dtb.rdMisses            4639516                       # TLB misses on read requests (Count)
system.timingCpu1.mmu.dtb.wrMisses             224846                       # TLB misses on write requests (Count)
system.timingCpu1.mmu.dtb.walker.power_state.pwrStateResidencyTicks::UNDEFINED 163682526979500                       # Cumulative time (in ticks) in various power states (Tick)
system.timingCpu1.mmu.itb.rdAccesses                0                       # TLB accesses on read requests (Count)
system.timingCpu1.mmu.itb.wrAccesses       1780237832                       # TLB accesses on write requests (Count)
system.timingCpu1.mmu.itb.rdMisses                  0                       # TLB misses on read requests (Count)
system.timingCpu1.mmu.itb.wrMisses               7065                       # TLB misses on write requests (Count)
system.timingCpu1.mmu.itb.walker.power_state.pwrStateResidencyTicks::UNDEFINED 163682526979500                       # Cumulative time (in ticks) in various power states (Tick)
system.timingCpu1.power_state.pwrStateResidencyTicks::OFF 163682526979500                       # Cumulative time (in ticks) in various power states (Tick)
system.timingCpu1.thread_0.numInsts                 0                       # Number of Instructions committed (Count)
system.timingCpu1.thread_0.numOps                   0                       # Number of Ops committed (Count)
system.timingCpu1.thread_0.numMemRefs               0                       # Number of Memory References (Count)
system.workload.inst.arm                            0                       # number of arm instructions executed (Count)
system.workload.inst.quiesce                        0                       # number of quiesce instructions executed (Count)

---------- End Simulation Statistics   ----------
