
---------- Begin Simulation Statistics ----------
simSeconds                                          2                       # Number of seconds simulated (Second)
simTicks                                 2000000000000                       # Number of ticks simulated (Tick)
finalTick                                19807295767750                       # Number of ticks from beginning of simulation (restored from checkpoints and never reset) (Tick)
simFreq                                  1000000000000                       # The number of ticks per simulated second ((Tick/Second))
hostSeconds                                  15863.15                       # Real time elapsed on the host (Second)
hostTickRate                                126078383                       # The number of ticks simulated per host second (ticks/s) ((Tick/Second))
hostMemory                                    7190400                       # Number of bytes of host memory used (Byte)
simInsts                                   7513655458                       # Number of instructions simulated (Count)
simOps                                    11103654022                       # Number of ops (including micro ops) simulated (Count)
hostInstRate                                   473655                       # Simulator instruction rate (inst/s) ((Count/Second))
hostOpRate                                     699965                       # Simulator op (including micro ops) rate (op/s) ((Count/Second))
system.atomicCpu0.numCycles                         0                       # Number of cpu cycles simulated (Cycle)
system.atomicCpu0.numWorkItemsStarted               0                       # Number of work items this cpu started (Count)
system.atomicCpu0.numWorkItemsCompleted             0                       # Number of work items this cpu completed (Count)
system.atomicCpu0.exec_context.thread_0.numInsts            0                       # Number of instructions committed (Count)
system.atomicCpu0.exec_context.thread_0.numOps            0                       # Number of ops (including micro ops) committed (Count)
system.atomicCpu0.exec_context.thread_0.numIntAluAccesses            0                       # Number of integer alu accesses (Count)
system.atomicCpu0.exec_context.thread_0.numFpAluAccesses            0                       # Number of float alu accesses (Count)
system.atomicCpu0.exec_context.thread_0.numVecAluAccesses            0                       # Number of vector alu accesses (Count)
system.atomicCpu0.exec_context.thread_0.numCallsReturns            0                       # Number of times a function call or return occured (Count)
system.atomicCpu0.exec_context.thread_0.numCondCtrlInsts            0                       # Number of instructions that are conditional controls (Count)
system.atomicCpu0.exec_context.thread_0.numIntInsts            0                       # Number of integer instructions (Count)
system.atomicCpu0.exec_context.thread_0.numFpInsts            0                       # Number of float instructions (Count)
system.atomicCpu0.exec_context.thread_0.numVecInsts            0                       # Number of vector instructions (Count)
system.atomicCpu0.exec_context.thread_0.numIntRegReads            0                       # Number of times the integer registers were read (Count)
system.atomicCpu0.exec_context.thread_0.numIntRegWrites            0                       # Number of times the integer registers were written (Count)
system.atomicCpu0.exec_context.thread_0.numFpRegReads            0                       # Number of times the floating registers were read (Count)
system.atomicCpu0.exec_context.thread_0.numFpRegWrites            0                       # Number of times the floating registers were written (Count)
system.atomicCpu0.exec_context.thread_0.numVecRegReads            0                       # Number of times the vector registers were read (Count)
system.atomicCpu0.exec_context.thread_0.numVecRegWrites            0                       # Number of times the vector registers were written (Count)
system.atomicCpu0.exec_context.thread_0.numVecPredRegReads            0                       # Number of times the predicate registers were read (Count)
system.atomicCpu0.exec_context.thread_0.numVecPredRegWrites            0                       # Number of times the predicate registers were written (Count)
system.atomicCpu0.exec_context.thread_0.numMiscRegReads            0                       # Number of times the Misc registers were read (Count)
system.atomicCpu0.exec_context.thread_0.numMiscRegWrites            0                       # Number of times the Misc registers were written (Count)
system.atomicCpu0.exec_context.thread_0.numMemRefs            0                       # Number of memory refs (Count)
system.atomicCpu0.exec_context.thread_0.numLoadInsts            0                       # Number of load instructions (Count)
system.atomicCpu0.exec_context.thread_0.numStoreInsts            0                       # Number of store instructions (Count)
system.atomicCpu0.exec_context.thread_0.numIdleCycles            0                       # Number of idle cycles (Cycle)
system.atomicCpu0.exec_context.thread_0.numBusyCycles            0                       # Number of busy cycles (Cycle)
system.atomicCpu0.exec_context.thread_0.notIdleFraction            0                       # Percentage of non-idle cycles (Ratio)
system.atomicCpu0.exec_context.thread_0.idleFraction            1                       # Percentage of idle cycles (Ratio)
system.atomicCpu0.exec_context.thread_0.statExecutedInstType::No_OpClass            0                       # Class of executed instruction. (Count)
system.atomicCpu0.exec_context.thread_0.statExecutedInstType::IntAlu            0                       # Class of executed instruction. (Count)
system.atomicCpu0.exec_context.thread_0.statExecutedInstType::IntMult            0                       # Class of executed instruction. (Count)
system.atomicCpu0.exec_context.thread_0.statExecutedInstType::IntDiv            0                       # Class of executed instruction. (Count)
system.atomicCpu0.exec_context.thread_0.statExecutedInstType::FloatAdd            0                       # Class of executed instruction. (Count)
system.atomicCpu0.exec_context.thread_0.statExecutedInstType::FloatCmp            0                       # Class of executed instruction. (Count)
system.atomicCpu0.exec_context.thread_0.statExecutedInstType::FloatCvt            0                       # Class of executed instruction. (Count)
system.atomicCpu0.exec_context.thread_0.statExecutedInstType::FloatMult            0                       # Class of executed instruction. (Count)
system.atomicCpu0.exec_context.thread_0.statExecutedInstType::FloatMultAcc            0                       # Class of executed instruction. (Count)
system.atomicCpu0.exec_context.thread_0.statExecutedInstType::FloatDiv            0                       # Class of executed instruction. (Count)
system.atomicCpu0.exec_context.thread_0.statExecutedInstType::FloatMisc            0                       # Class of executed instruction. (Count)
system.atomicCpu0.exec_context.thread_0.statExecutedInstType::FloatSqrt            0                       # Class of executed instruction. (Count)
system.atomicCpu0.exec_context.thread_0.statExecutedInstType::SimdAdd            0                       # Class of executed instruction. (Count)
system.atomicCpu0.exec_context.thread_0.statExecutedInstType::SimdAddAcc            0                       # Class of executed instruction. (Count)
system.atomicCpu0.exec_context.thread_0.statExecutedInstType::SimdAlu            0                       # Class of executed instruction. (Count)
system.atomicCpu0.exec_context.thread_0.statExecutedInstType::SimdCmp            0                       # Class of executed instruction. (Count)
system.atomicCpu0.exec_context.thread_0.statExecutedInstType::SimdCvt            0                       # Class of executed instruction. (Count)
system.atomicCpu0.exec_context.thread_0.statExecutedInstType::SimdMisc            0                       # Class of executed instruction. (Count)
system.atomicCpu0.exec_context.thread_0.statExecutedInstType::SimdMult            0                       # Class of executed instruction. (Count)
system.atomicCpu0.exec_context.thread_0.statExecutedInstType::SimdMultAcc            0                       # Class of executed instruction. (Count)
system.atomicCpu0.exec_context.thread_0.statExecutedInstType::SimdShift            0                       # Class of executed instruction. (Count)
system.atomicCpu0.exec_context.thread_0.statExecutedInstType::SimdShiftAcc            0                       # Class of executed instruction. (Count)
system.atomicCpu0.exec_context.thread_0.statExecutedInstType::SimdDiv            0                       # Class of executed instruction. (Count)
system.atomicCpu0.exec_context.thread_0.statExecutedInstType::SimdSqrt            0                       # Class of executed instruction. (Count)
system.atomicCpu0.exec_context.thread_0.statExecutedInstType::SimdFloatAdd            0                       # Class of executed instruction. (Count)
system.atomicCpu0.exec_context.thread_0.statExecutedInstType::SimdFloatAlu            0                       # Class of executed instruction. (Count)
system.atomicCpu0.exec_context.thread_0.statExecutedInstType::SimdFloatCmp            0                       # Class of executed instruction. (Count)
system.atomicCpu0.exec_context.thread_0.statExecutedInstType::SimdFloatCvt            0                       # Class of executed instruction. (Count)
system.atomicCpu0.exec_context.thread_0.statExecutedInstType::SimdFloatDiv            0                       # Class of executed instruction. (Count)
system.atomicCpu0.exec_context.thread_0.statExecutedInstType::SimdFloatMisc            0                       # Class of executed instruction. (Count)
system.atomicCpu0.exec_context.thread_0.statExecutedInstType::SimdFloatMult            0                       # Class of executed instruction. (Count)
system.atomicCpu0.exec_context.thread_0.statExecutedInstType::SimdFloatMultAcc            0                       # Class of executed instruction. (Count)
system.atomicCpu0.exec_context.thread_0.statExecutedInstType::SimdFloatSqrt            0                       # Class of executed instruction. (Count)
system.atomicCpu0.exec_context.thread_0.statExecutedInstType::SimdReduceAdd            0                       # Class of executed instruction. (Count)
system.atomicCpu0.exec_context.thread_0.statExecutedInstType::SimdReduceAlu            0                       # Class of executed instruction. (Count)
system.atomicCpu0.exec_context.thread_0.statExecutedInstType::SimdReduceCmp            0                       # Class of executed instruction. (Count)
system.atomicCpu0.exec_context.thread_0.statExecutedInstType::SimdFloatReduceAdd            0                       # Class of executed instruction. (Count)
system.atomicCpu0.exec_context.thread_0.statExecutedInstType::SimdFloatReduceCmp            0                       # Class of executed instruction. (Count)
system.atomicCpu0.exec_context.thread_0.statExecutedInstType::SimdAes            0                       # Class of executed instruction. (Count)
system.atomicCpu0.exec_context.thread_0.statExecutedInstType::SimdAesMix            0                       # Class of executed instruction. (Count)
system.atomicCpu0.exec_context.thread_0.statExecutedInstType::SimdSha1Hash            0                       # Class of executed instruction. (Count)
system.atomicCpu0.exec_context.thread_0.statExecutedInstType::SimdSha1Hash2            0                       # Class of executed instruction. (Count)
system.atomicCpu0.exec_context.thread_0.statExecutedInstType::SimdSha256Hash            0                       # Class of executed instruction. (Count)
system.atomicCpu0.exec_context.thread_0.statExecutedInstType::SimdSha256Hash2            0                       # Class of executed instruction. (Count)
system.atomicCpu0.exec_context.thread_0.statExecutedInstType::SimdShaSigma2            0                       # Class of executed instruction. (Count)
system.atomicCpu0.exec_context.thread_0.statExecutedInstType::SimdShaSigma3            0                       # Class of executed instruction. (Count)
system.atomicCpu0.exec_context.thread_0.statExecutedInstType::SimdPredAlu            0                       # Class of executed instruction. (Count)
system.atomicCpu0.exec_context.thread_0.statExecutedInstType::MemRead            0                       # Class of executed instruction. (Count)
system.atomicCpu0.exec_context.thread_0.statExecutedInstType::MemWrite            0                       # Class of executed instruction. (Count)
system.atomicCpu0.exec_context.thread_0.statExecutedInstType::FloatMemRead            0                       # Class of executed instruction. (Count)
system.atomicCpu0.exec_context.thread_0.statExecutedInstType::FloatMemWrite            0                       # Class of executed instruction. (Count)
system.atomicCpu0.exec_context.thread_0.statExecutedInstType::IprAccess            0                       # Class of executed instruction. (Count)
system.atomicCpu0.exec_context.thread_0.statExecutedInstType::InstPrefetch            0                       # Class of executed instruction. (Count)
system.atomicCpu0.exec_context.thread_0.statExecutedInstType::total            0                       # Class of executed instruction. (Count)
system.atomicCpu0.mmu.dtb.rdAccesses                0                       # TLB accesses on read requests (Count)
system.atomicCpu0.mmu.dtb.wrAccesses                0                       # TLB accesses on write requests (Count)
system.atomicCpu0.mmu.dtb.rdMisses                  0                       # TLB misses on read requests (Count)
system.atomicCpu0.mmu.dtb.wrMisses                  0                       # TLB misses on write requests (Count)
system.atomicCpu0.mmu.dtb.walker.power_state.pwrStateResidencyTicks::UNDEFINED 19807295767750                       # Cumulative time (in ticks) in various power states (Tick)
system.atomicCpu0.mmu.itb.rdAccesses                0                       # TLB accesses on read requests (Count)
system.atomicCpu0.mmu.itb.wrAccesses                0                       # TLB accesses on write requests (Count)
system.atomicCpu0.mmu.itb.rdMisses                  0                       # TLB misses on read requests (Count)
system.atomicCpu0.mmu.itb.wrMisses                  0                       # TLB misses on write requests (Count)
system.atomicCpu0.mmu.itb.walker.power_state.pwrStateResidencyTicks::UNDEFINED 19807295767750                       # Cumulative time (in ticks) in various power states (Tick)
system.atomicCpu0.power_state.pwrStateResidencyTicks::OFF 19807295767750                       # Cumulative time (in ticks) in various power states (Tick)
system.atomicCpu0.thread_0.numInsts                 0                       # Number of Instructions committed (Count)
system.atomicCpu0.thread_0.numOps                   0                       # Number of Ops committed (Count)
system.atomicCpu0.thread_0.numMemRefs               0                       # Number of Memory References (Count)
system.atomicCpu1.numCycles                         0                       # Number of cpu cycles simulated (Cycle)
system.atomicCpu1.numWorkItemsStarted               0                       # Number of work items this cpu started (Count)
system.atomicCpu1.numWorkItemsCompleted             0                       # Number of work items this cpu completed (Count)
system.atomicCpu1.exec_context.thread_0.numInsts            0                       # Number of instructions committed (Count)
system.atomicCpu1.exec_context.thread_0.numOps            0                       # Number of ops (including micro ops) committed (Count)
system.atomicCpu1.exec_context.thread_0.numIntAluAccesses            0                       # Number of integer alu accesses (Count)
system.atomicCpu1.exec_context.thread_0.numFpAluAccesses            0                       # Number of float alu accesses (Count)
system.atomicCpu1.exec_context.thread_0.numVecAluAccesses            0                       # Number of vector alu accesses (Count)
system.atomicCpu1.exec_context.thread_0.numCallsReturns            0                       # Number of times a function call or return occured (Count)
system.atomicCpu1.exec_context.thread_0.numCondCtrlInsts            0                       # Number of instructions that are conditional controls (Count)
system.atomicCpu1.exec_context.thread_0.numIntInsts            0                       # Number of integer instructions (Count)
system.atomicCpu1.exec_context.thread_0.numFpInsts            0                       # Number of float instructions (Count)
system.atomicCpu1.exec_context.thread_0.numVecInsts            0                       # Number of vector instructions (Count)
system.atomicCpu1.exec_context.thread_0.numIntRegReads            0                       # Number of times the integer registers were read (Count)
system.atomicCpu1.exec_context.thread_0.numIntRegWrites            0                       # Number of times the integer registers were written (Count)
system.atomicCpu1.exec_context.thread_0.numFpRegReads            0                       # Number of times the floating registers were read (Count)
system.atomicCpu1.exec_context.thread_0.numFpRegWrites            0                       # Number of times the floating registers were written (Count)
system.atomicCpu1.exec_context.thread_0.numVecRegReads            0                       # Number of times the vector registers were read (Count)
system.atomicCpu1.exec_context.thread_0.numVecRegWrites            0                       # Number of times the vector registers were written (Count)
system.atomicCpu1.exec_context.thread_0.numVecPredRegReads            0                       # Number of times the predicate registers were read (Count)
system.atomicCpu1.exec_context.thread_0.numVecPredRegWrites            0                       # Number of times the predicate registers were written (Count)
system.atomicCpu1.exec_context.thread_0.numMiscRegReads            0                       # Number of times the Misc registers were read (Count)
system.atomicCpu1.exec_context.thread_0.numMiscRegWrites            0                       # Number of times the Misc registers were written (Count)
system.atomicCpu1.exec_context.thread_0.numMemRefs            0                       # Number of memory refs (Count)
system.atomicCpu1.exec_context.thread_0.numLoadInsts            0                       # Number of load instructions (Count)
system.atomicCpu1.exec_context.thread_0.numStoreInsts            0                       # Number of store instructions (Count)
system.atomicCpu1.exec_context.thread_0.numIdleCycles            0                       # Number of idle cycles (Cycle)
system.atomicCpu1.exec_context.thread_0.numBusyCycles            0                       # Number of busy cycles (Cycle)
system.atomicCpu1.exec_context.thread_0.notIdleFraction            0                       # Percentage of non-idle cycles (Ratio)
system.atomicCpu1.exec_context.thread_0.idleFraction            1                       # Percentage of idle cycles (Ratio)
system.atomicCpu1.exec_context.thread_0.statExecutedInstType::No_OpClass            0                       # Class of executed instruction. (Count)
system.atomicCpu1.exec_context.thread_0.statExecutedInstType::IntAlu            0                       # Class of executed instruction. (Count)
system.atomicCpu1.exec_context.thread_0.statExecutedInstType::IntMult            0                       # Class of executed instruction. (Count)
system.atomicCpu1.exec_context.thread_0.statExecutedInstType::IntDiv            0                       # Class of executed instruction. (Count)
system.atomicCpu1.exec_context.thread_0.statExecutedInstType::FloatAdd            0                       # Class of executed instruction. (Count)
system.atomicCpu1.exec_context.thread_0.statExecutedInstType::FloatCmp            0                       # Class of executed instruction. (Count)
system.atomicCpu1.exec_context.thread_0.statExecutedInstType::FloatCvt            0                       # Class of executed instruction. (Count)
system.atomicCpu1.exec_context.thread_0.statExecutedInstType::FloatMult            0                       # Class of executed instruction. (Count)
system.atomicCpu1.exec_context.thread_0.statExecutedInstType::FloatMultAcc            0                       # Class of executed instruction. (Count)
system.atomicCpu1.exec_context.thread_0.statExecutedInstType::FloatDiv            0                       # Class of executed instruction. (Count)
system.atomicCpu1.exec_context.thread_0.statExecutedInstType::FloatMisc            0                       # Class of executed instruction. (Count)
system.atomicCpu1.exec_context.thread_0.statExecutedInstType::FloatSqrt            0                       # Class of executed instruction. (Count)
system.atomicCpu1.exec_context.thread_0.statExecutedInstType::SimdAdd            0                       # Class of executed instruction. (Count)
system.atomicCpu1.exec_context.thread_0.statExecutedInstType::SimdAddAcc            0                       # Class of executed instruction. (Count)
system.atomicCpu1.exec_context.thread_0.statExecutedInstType::SimdAlu            0                       # Class of executed instruction. (Count)
system.atomicCpu1.exec_context.thread_0.statExecutedInstType::SimdCmp            0                       # Class of executed instruction. (Count)
system.atomicCpu1.exec_context.thread_0.statExecutedInstType::SimdCvt            0                       # Class of executed instruction. (Count)
system.atomicCpu1.exec_context.thread_0.statExecutedInstType::SimdMisc            0                       # Class of executed instruction. (Count)
system.atomicCpu1.exec_context.thread_0.statExecutedInstType::SimdMult            0                       # Class of executed instruction. (Count)
system.atomicCpu1.exec_context.thread_0.statExecutedInstType::SimdMultAcc            0                       # Class of executed instruction. (Count)
system.atomicCpu1.exec_context.thread_0.statExecutedInstType::SimdShift            0                       # Class of executed instruction. (Count)
system.atomicCpu1.exec_context.thread_0.statExecutedInstType::SimdShiftAcc            0                       # Class of executed instruction. (Count)
system.atomicCpu1.exec_context.thread_0.statExecutedInstType::SimdDiv            0                       # Class of executed instruction. (Count)
system.atomicCpu1.exec_context.thread_0.statExecutedInstType::SimdSqrt            0                       # Class of executed instruction. (Count)
system.atomicCpu1.exec_context.thread_0.statExecutedInstType::SimdFloatAdd            0                       # Class of executed instruction. (Count)
system.atomicCpu1.exec_context.thread_0.statExecutedInstType::SimdFloatAlu            0                       # Class of executed instruction. (Count)
system.atomicCpu1.exec_context.thread_0.statExecutedInstType::SimdFloatCmp            0                       # Class of executed instruction. (Count)
system.atomicCpu1.exec_context.thread_0.statExecutedInstType::SimdFloatCvt            0                       # Class of executed instruction. (Count)
system.atomicCpu1.exec_context.thread_0.statExecutedInstType::SimdFloatDiv            0                       # Class of executed instruction. (Count)
system.atomicCpu1.exec_context.thread_0.statExecutedInstType::SimdFloatMisc            0                       # Class of executed instruction. (Count)
system.atomicCpu1.exec_context.thread_0.statExecutedInstType::SimdFloatMult            0                       # Class of executed instruction. (Count)
system.atomicCpu1.exec_context.thread_0.statExecutedInstType::SimdFloatMultAcc            0                       # Class of executed instruction. (Count)
system.atomicCpu1.exec_context.thread_0.statExecutedInstType::SimdFloatSqrt            0                       # Class of executed instruction. (Count)
system.atomicCpu1.exec_context.thread_0.statExecutedInstType::SimdReduceAdd            0                       # Class of executed instruction. (Count)
system.atomicCpu1.exec_context.thread_0.statExecutedInstType::SimdReduceAlu            0                       # Class of executed instruction. (Count)
system.atomicCpu1.exec_context.thread_0.statExecutedInstType::SimdReduceCmp            0                       # Class of executed instruction. (Count)
system.atomicCpu1.exec_context.thread_0.statExecutedInstType::SimdFloatReduceAdd            0                       # Class of executed instruction. (Count)
system.atomicCpu1.exec_context.thread_0.statExecutedInstType::SimdFloatReduceCmp            0                       # Class of executed instruction. (Count)
system.atomicCpu1.exec_context.thread_0.statExecutedInstType::SimdAes            0                       # Class of executed instruction. (Count)
system.atomicCpu1.exec_context.thread_0.statExecutedInstType::SimdAesMix            0                       # Class of executed instruction. (Count)
system.atomicCpu1.exec_context.thread_0.statExecutedInstType::SimdSha1Hash            0                       # Class of executed instruction. (Count)
system.atomicCpu1.exec_context.thread_0.statExecutedInstType::SimdSha1Hash2            0                       # Class of executed instruction. (Count)
system.atomicCpu1.exec_context.thread_0.statExecutedInstType::SimdSha256Hash            0                       # Class of executed instruction. (Count)
system.atomicCpu1.exec_context.thread_0.statExecutedInstType::SimdSha256Hash2            0                       # Class of executed instruction. (Count)
system.atomicCpu1.exec_context.thread_0.statExecutedInstType::SimdShaSigma2            0                       # Class of executed instruction. (Count)
system.atomicCpu1.exec_context.thread_0.statExecutedInstType::SimdShaSigma3            0                       # Class of executed instruction. (Count)
system.atomicCpu1.exec_context.thread_0.statExecutedInstType::SimdPredAlu            0                       # Class of executed instruction. (Count)
system.atomicCpu1.exec_context.thread_0.statExecutedInstType::MemRead            0                       # Class of executed instruction. (Count)
system.atomicCpu1.exec_context.thread_0.statExecutedInstType::MemWrite            0                       # Class of executed instruction. (Count)
system.atomicCpu1.exec_context.thread_0.statExecutedInstType::FloatMemRead            0                       # Class of executed instruction. (Count)
system.atomicCpu1.exec_context.thread_0.statExecutedInstType::FloatMemWrite            0                       # Class of executed instruction. (Count)
system.atomicCpu1.exec_context.thread_0.statExecutedInstType::IprAccess            0                       # Class of executed instruction. (Count)
system.atomicCpu1.exec_context.thread_0.statExecutedInstType::InstPrefetch            0                       # Class of executed instruction. (Count)
system.atomicCpu1.exec_context.thread_0.statExecutedInstType::total            0                       # Class of executed instruction. (Count)
system.atomicCpu1.mmu.dtb.rdAccesses                0                       # TLB accesses on read requests (Count)
system.atomicCpu1.mmu.dtb.wrAccesses                0                       # TLB accesses on write requests (Count)
system.atomicCpu1.mmu.dtb.rdMisses                  0                       # TLB misses on read requests (Count)
system.atomicCpu1.mmu.dtb.wrMisses                  0                       # TLB misses on write requests (Count)
system.atomicCpu1.mmu.dtb.walker.power_state.pwrStateResidencyTicks::UNDEFINED 19807295767750                       # Cumulative time (in ticks) in various power states (Tick)
system.atomicCpu1.mmu.itb.rdAccesses                0                       # TLB accesses on read requests (Count)
system.atomicCpu1.mmu.itb.wrAccesses                0                       # TLB accesses on write requests (Count)
system.atomicCpu1.mmu.itb.rdMisses                  0                       # TLB misses on read requests (Count)
system.atomicCpu1.mmu.itb.wrMisses                  0                       # TLB misses on write requests (Count)
system.atomicCpu1.mmu.itb.walker.power_state.pwrStateResidencyTicks::UNDEFINED 19807295767750                       # Cumulative time (in ticks) in various power states (Tick)
system.atomicCpu1.power_state.pwrStateResidencyTicks::OFF 19807295767750                       # Cumulative time (in ticks) in various power states (Tick)
system.atomicCpu1.thread_0.numInsts                 0                       # Number of Instructions committed (Count)
system.atomicCpu1.thread_0.numOps                   0                       # Number of Ops committed (Count)
system.atomicCpu1.thread_0.numMemRefs               0                       # Number of Memory References (Count)
system.caches.delayHistogram::bucket_size            4                       # delay histogram for all message (Unspecified)
system.caches.delayHistogram::max_bucket           39                       # delay histogram for all message (Unspecified)
system.caches.delayHistogram::samples        62083475                       # delay histogram for all message (Unspecified)
system.caches.delayHistogram::mean           0.894116                       # delay histogram for all message (Unspecified)
system.caches.delayHistogram::stdev          2.573365                       # delay histogram for all message (Unspecified)
system.caches.delayHistogram             |    55317213     89.10%     89.10% |       10001      0.02%     89.12% |     6714286     10.81%     99.93% |         880      0.00%     99.93% |       41093      0.07%    100.00% |           1      0.00%    100.00% |           0      0.00%    100.00% |           1      0.00%    100.00% |           0      0.00%    100.00% |           0      0.00%    100.00% # delay histogram for all message (Unspecified)
system.caches.delayHistogram::total          62083475                       # delay histogram for all message (Unspecified)
system.caches.m_outstandReqHistSeqr::bucket_size            1                       (Unspecified)
system.caches.m_outstandReqHistSeqr::max_bucket            9                       (Unspecified)
system.caches.m_outstandReqHistSeqr::samples   7900610104                       (Unspecified)
system.caches.m_outstandReqHistSeqr::mean            1                       (Unspecified)
system.caches.m_outstandReqHistSeqr::gmean            1                       (Unspecified)
system.caches.m_outstandReqHistSeqr      |           0      0.00%      0.00% |  7900610104    100.00%    100.00% |           0      0.00%    100.00% |           0      0.00%    100.00% |           0      0.00%    100.00% |           0      0.00%    100.00% |           0      0.00%    100.00% |           0      0.00%    100.00% |           0      0.00%    100.00% |           0      0.00%    100.00% (Unspecified)
system.caches.m_outstandReqHistSeqr::total   7900610104                       (Unspecified)
system.caches.m_latencyHistSeqr::bucket_size          256                       (Unspecified)
system.caches.m_latencyHistSeqr::max_bucket         2559                       (Unspecified)
system.caches.m_latencyHistSeqr::samples   7900610103                       (Unspecified)
system.caches.m_latencyHistSeqr::mean        1.024834                       (Unspecified)
system.caches.m_latencyHistSeqr::gmean       1.004344                       (Unspecified)
system.caches.m_latencyHistSeqr::stdev       1.315411                       (Unspecified)
system.caches.m_latencyHistSeqr          |  7900573006    100.00%    100.00% |       32264      0.00%    100.00% |        3377      0.00%    100.00% |         321      0.00%    100.00% |         140      0.00%    100.00% |         228      0.00%    100.00% |         307      0.00%    100.00% |         454      0.00%    100.00% |           6      0.00%    100.00% |           0      0.00%    100.00% (Unspecified)
system.caches.m_latencyHistSeqr::total     7900610103                       (Unspecified)
system.caches.m_hitLatencyHistSeqr::bucket_size            1                       (Unspecified)
system.caches.m_hitLatencyHistSeqr::max_bucket            9                       (Unspecified)
system.caches.m_hitLatencyHistSeqr::samples   7888009748                       (Unspecified)
system.caches.m_hitLatencyHistSeqr::mean            1                       (Unspecified)
system.caches.m_hitLatencyHistSeqr::gmean            1                       (Unspecified)
system.caches.m_hitLatencyHistSeqr       |           0      0.00%      0.00% |  7888009748    100.00%    100.00% |           0      0.00%    100.00% |           0      0.00%    100.00% |           0      0.00%    100.00% |           0      0.00%    100.00% |           0      0.00%    100.00% |           0      0.00%    100.00% |           0      0.00%    100.00% |           0      0.00%    100.00% (Unspecified)
system.caches.m_hitLatencyHistSeqr::total   7888009748                       (Unspecified)
system.caches.m_missLatencyHistSeqr::bucket_size          256                       (Unspecified)
system.caches.m_missLatencyHistSeqr::max_bucket         2559                       (Unspecified)
system.caches.m_missLatencyHistSeqr::samples     12600355                       (Unspecified)
system.caches.m_missLatencyHistSeqr::mean    16.571076                       (Unspecified)
system.caches.m_missLatencyHistSeqr::gmean    15.144551                       (Unspecified)
system.caches.m_missLatencyHistSeqr::stdev    29.031982                       (Unspecified)
system.caches.m_missLatencyHistSeqr      |    12563258     99.71%     99.71% |       32264      0.26%     99.96% |        3377      0.03%     99.99% |         321      0.00%     99.99% |         140      0.00%     99.99% |         228      0.00%     99.99% |         307      0.00%    100.00% |         454      0.00%    100.00% |           6      0.00%    100.00% |           0      0.00%    100.00% (Unspecified)
system.caches.m_missLatencyHistSeqr::total     12600355                       (Unspecified)
system.caches.delayVCHist.vnet_0::bucket_size            4                       # delay histogram for vnet_0 (Unspecified)
system.caches.delayVCHist.vnet_0::max_bucket           39                       # delay histogram for vnet_0 (Unspecified)
system.caches.delayVCHist.vnet_0::samples     37149743                       # delay histogram for vnet_0 (Unspecified)
system.caches.delayVCHist.vnet_0::mean       1.494218                       # delay histogram for vnet_0 (Unspecified)
system.caches.delayVCHist.vnet_0::stdev      3.189065                       # delay histogram for vnet_0 (Unspecified)
system.caches.delayVCHist.vnet_0         |    30383482     81.79%     81.79% |       10000      0.03%     81.81% |     6714286     18.07%     99.89% |         880      0.00%     99.89% |       41093      0.11%    100.00% |           1      0.00%    100.00% |           0      0.00%    100.00% |           1      0.00%    100.00% |           0      0.00%    100.00% |           0      0.00%    100.00% # delay histogram for vnet_0 (Unspecified)
system.caches.delayVCHist.vnet_0::total      37149743                       # delay histogram for vnet_0 (Unspecified)
system.caches.delayVCHist.vnet_1::bucket_size            1                       # delay histogram for vnet_1 (Unspecified)
system.caches.delayVCHist.vnet_1::max_bucket            9                       # delay histogram for vnet_1 (Unspecified)
system.caches.delayVCHist.vnet_1::samples     24913606                       # delay histogram for vnet_1 (Unspecified)
system.caches.delayVCHist.vnet_1::mean       0.000000                       # delay histogram for vnet_1 (Unspecified)
system.caches.delayVCHist.vnet_1::stdev      0.001267                       # delay histogram for vnet_1 (Unspecified)
system.caches.delayVCHist.vnet_1         |    24913604    100.00%    100.00% |           0      0.00%    100.00% |           1      0.00%    100.00% |           0      0.00%    100.00% |           0      0.00%    100.00% |           0      0.00%    100.00% |           1      0.00%    100.00% |           0      0.00%    100.00% |           0      0.00%    100.00% |           0      0.00%    100.00% # delay histogram for vnet_1 (Unspecified)
system.caches.delayVCHist.vnet_1::total      24913606                       # delay histogram for vnet_1 (Unspecified)
system.caches.delayVCHist.vnet_2::bucket_size            1                       # delay histogram for vnet_2 (Unspecified)
system.caches.delayVCHist.vnet_2::max_bucket            9                       # delay histogram for vnet_2 (Unspecified)
system.caches.delayVCHist.vnet_2::samples        20126                       # delay histogram for vnet_2 (Unspecified)
system.caches.delayVCHist.vnet_2::mean       0.000596                       # delay histogram for vnet_2 (Unspecified)
system.caches.delayVCHist.vnet_2::stdev      0.034528                       # delay histogram for vnet_2 (Unspecified)
system.caches.delayVCHist.vnet_2         |       20120     99.97%     99.97% |           0      0.00%     99.97% |           6      0.03%    100.00% |           0      0.00%    100.00% |           0      0.00%    100.00% |           0      0.00%    100.00% |           0      0.00%    100.00% |           0      0.00%    100.00% |           0      0.00%    100.00% |           0      0.00%    100.00% # delay histogram for vnet_2 (Unspecified)
system.caches.delayVCHist.vnet_2::total         20126                       # delay histogram for vnet_2 (Unspecified)
system.caches.L1Cache_Controller.Load    |   453127092     49.99%     49.99% |   453234079     50.01%    100.00% (Unspecified)
system.caches.L1Cache_Controller.Load::total    906361171                       (Unspecified)
system.caches.L1Cache_Controller.Ifetch  |18446744072719224832     50.00%     50.00% |18446744072718854144     50.00%    100.00% (Unspecified)
system.caches.L1Cache_Controller.Ifetch::total 36893488145438081024                       (Unspecified)
system.caches.L1Cache_Controller.Store   |   192851561     50.05%     50.05% |   192486026     49.95%    100.00% (Unspecified)
system.caches.L1Cache_Controller.Store::total    385337587                       (Unspecified)
system.caches.L1Cache_Controller.Inv     |          68      0.70%      0.70% |        9712     99.30%    100.00% (Unspecified)
system.caches.L1Cache_Controller.Inv::total         9780                       (Unspecified)
system.caches.L1Cache_Controller.L1_Replacement |     6299311     50.13%     50.13% |     6265439     49.87%    100.00% (Unspecified)
system.caches.L1Cache_Controller.L1_Replacement::total     12564750                       (Unspecified)
system.caches.L1Cache_Controller.Fwd_GETX |           1      0.44%      0.44% |         225     99.56%    100.00% (Unspecified)
system.caches.L1Cache_Controller.Fwd_GETX::total          226                       (Unspecified)
system.caches.L1Cache_Controller.Fwd_GETS |        9935     98.17%     98.17% |         185      1.83%    100.00% (Unspecified)
system.caches.L1Cache_Controller.Fwd_GETS::total        10120                       (Unspecified)
system.caches.L1Cache_Controller.Data    |         548     99.64%     99.64% |           2      0.36%    100.00% (Unspecified)
system.caches.L1Cache_Controller.Data::total          550                       (Unspecified)
system.caches.L1Cache_Controller.Data_Exclusive |     2997070     49.90%     49.90% |     3009147     50.10%    100.00% (Unspecified)
system.caches.L1Cache_Controller.Data_Exclusive::total      6006217                       (Unspecified)
system.caches.L1Cache_Controller.DataS_fromL1 |         185      1.83%      1.83% |        9935     98.17%    100.00% (Unspecified)
system.caches.L1Cache_Controller.DataS_fromL1::total        10120                       (Unspecified)
system.caches.L1Cache_Controller.Data_all_Acks |     3310196     50.35%     50.35% |     3264042     49.65%    100.00% (Unspecified)
system.caches.L1Cache_Controller.Data_all_Acks::total      6574238                       (Unspecified)
system.caches.L1Cache_Controller.Ack     |        9164     99.28%     99.28% |          66      0.72%    100.00% (Unspecified)
system.caches.L1Cache_Controller.Ack::total         9230                       (Unspecified)
system.caches.L1Cache_Controller.Ack_all |        9712     99.30%     99.30% |          68      0.70%    100.00% (Unspecified)
system.caches.L1Cache_Controller.Ack_all::total         9780                       (Unspecified)
system.caches.L1Cache_Controller.WB_Ack  |     6125474     49.98%     49.98% |     6130867     50.02%    100.00% (Unspecified)
system.caches.L1Cache_Controller.WB_Ack::total     12256341                       (Unspecified)
system.caches.L1Cache_Controller.NP.Load |     3057290     49.89%     49.89% |     3070612     50.11%    100.00% (Unspecified)
system.caches.L1Cache_Controller.NP.Load::total      6127902                       (Unspecified)
system.caches.L1Cache_Controller.NP.Ifetch |      113411     60.74%     60.74% |       73318     39.26%    100.00% (Unspecified)
system.caches.L1Cache_Controller.NP.Ifetch::total       186729                       (Unspecified)
system.caches.L1Cache_Controller.NP.Store |     3137297     50.06%     50.06% |     3130182     49.94%    100.00% (Unspecified)
system.caches.L1Cache_Controller.NP.Store::total      6267479                       (Unspecified)
system.caches.L1Cache_Controller.NP.Inv  |           9      2.07%      2.07% |         426     97.93%    100.00% (Unspecified)
system.caches.L1Cache_Controller.NP.Inv::total          435                       (Unspecified)
system.caches.L1Cache_Controller.I.Load  |           0      0.00%      0.00% |        9014    100.00%    100.00% (Unspecified)
system.caches.L1Cache_Controller.I.Load::total         9014                       (Unspecified)
system.caches.L1Cache_Controller.I.Store |           1    100.00%    100.00% |           0      0.00%    100.00% (Unspecified)
system.caches.L1Cache_Controller.I.Store::total            1                       (Unspecified)
system.caches.L1Cache_Controller.I.L1_Replacement |          59     10.61%     10.61% |         497     89.39%    100.00% (Unspecified)
system.caches.L1Cache_Controller.I.L1_Replacement::total          556                       (Unspecified)
system.caches.L1Cache_Controller.S.Load  |   210924762     49.96%     49.96% |   211288710     50.04%    100.00% (Unspecified)
system.caches.L1Cache_Controller.S.Load::total    422213472                       (Unspecified)
system.caches.L1Cache_Controller.S.Ifetch |18446744072719112192     50.00%     50.00% |18446744072718782464     50.00%    100.00% (Unspecified)
system.caches.L1Cache_Controller.S.Ifetch::total 36893488145437892608                       (Unspecified)
system.caches.L1Cache_Controller.S.Store |        9164     99.28%     99.28% |          66      0.72%    100.00% (Unspecified)
system.caches.L1Cache_Controller.S.Store::total         9230                       (Unspecified)
system.caches.L1Cache_Controller.S.Inv   |          59      0.63%      0.63% |        9278     99.37%    100.00% (Unspecified)
system.caches.L1Cache_Controller.S.Inv::total         9337                       (Unspecified)
system.caches.L1Cache_Controller.S.L1_Replacement |      173778     56.45%     56.45% |      134075     43.55%    100.00% (Unspecified)
system.caches.L1Cache_Controller.S.L1_Replacement::total       307853                       (Unspecified)
system.caches.L1Cache_Controller.E.Load  |    40859353     33.77%     33.77% |    80135309     66.23%    100.00% (Unspecified)
system.caches.L1Cache_Controller.E.Load::total    120994662                       (Unspecified)
system.caches.L1Cache_Controller.E.Store |        6738     53.36%     53.36% |        5889     46.64%    100.00% (Unspecified)
system.caches.L1Cache_Controller.E.Store::total        12627                       (Unspecified)
system.caches.L1Cache_Controller.E.L1_Replacement |     2989840     49.89%     49.89% |     3002862     50.11%    100.00% (Unspecified)
system.caches.L1Cache_Controller.E.L1_Replacement::total      5992702                       (Unspecified)
system.caches.L1Cache_Controller.E.Fwd_GETX |           0      0.00%      0.00% |         224    100.00%    100.00% (Unspecified)
system.caches.L1Cache_Controller.E.Fwd_GETX::total          224                       (Unspecified)
system.caches.L1Cache_Controller.E.Fwd_GETS |         456     79.17%     79.17% |         120     20.83%    100.00% (Unspecified)
system.caches.L1Cache_Controller.E.Fwd_GETS::total          576                       (Unspecified)
system.caches.L1Cache_Controller.M.Load  |   198285687     55.54%     55.54% |   158730434     44.46%    100.00% (Unspecified)
system.caches.L1Cache_Controller.M.Load::total    357016121                       (Unspecified)
system.caches.L1Cache_Controller.M.Store |   189698361     50.05%     50.05% |   189349889     49.95%    100.00% (Unspecified)
system.caches.L1Cache_Controller.M.Store::total    379048250                       (Unspecified)
system.caches.L1Cache_Controller.M.L1_Replacement |     3135634     50.06%     50.06% |     3128005     49.94%    100.00% (Unspecified)
system.caches.L1Cache_Controller.M.L1_Replacement::total      6263639                       (Unspecified)
system.caches.L1Cache_Controller.M.Fwd_GETX |           1     50.00%     50.00% |           1     50.00%    100.00% (Unspecified)
system.caches.L1Cache_Controller.M.Fwd_GETX::total            2                       (Unspecified)
system.caches.L1Cache_Controller.M.Fwd_GETS |        9479     99.32%     99.32% |          65      0.68%    100.00% (Unspecified)
system.caches.L1Cache_Controller.M.Fwd_GETS::total         9544                       (Unspecified)
system.caches.L1Cache_Controller.IS.Inv  |           0      0.00%      0.00% |           8    100.00%    100.00% (Unspecified)
system.caches.L1Cache_Controller.IS.Inv::total            8                       (Unspecified)
system.caches.L1Cache_Controller.IS.Data_Exclusive |     2997070     49.90%     49.90% |     3009147     50.10%    100.00% (Unspecified)
system.caches.L1Cache_Controller.IS.Data_Exclusive::total      6006217                       (Unspecified)
system.caches.L1Cache_Controller.IS.DataS_fromL1 |         185      1.83%      1.83% |        9931     98.17%    100.00% (Unspecified)
system.caches.L1Cache_Controller.IS.DataS_fromL1::total        10116                       (Unspecified)
system.caches.L1Cache_Controller.IS.Data_all_Acks |      173446     56.44%     56.44% |      133858     43.56%    100.00% (Unspecified)
system.caches.L1Cache_Controller.IS.Data_all_Acks::total       307304                       (Unspecified)
system.caches.L1Cache_Controller.IM.Data |         548     99.64%     99.64% |           2      0.36%    100.00% (Unspecified)
system.caches.L1Cache_Controller.IM.Data::total          550                       (Unspecified)
system.caches.L1Cache_Controller.IM.Data_all_Acks |     3136750     50.05%     50.05% |     3130180     49.95%    100.00% (Unspecified)
system.caches.L1Cache_Controller.IM.Data_all_Acks::total      6266930                       (Unspecified)
system.caches.L1Cache_Controller.SM.Ack  |        9164     99.28%     99.28% |          66      0.72%    100.00% (Unspecified)
system.caches.L1Cache_Controller.SM.Ack::total         9230                       (Unspecified)
system.caches.L1Cache_Controller.SM.Ack_all |        9712     99.30%     99.30% |          68      0.70%    100.00% (Unspecified)
system.caches.L1Cache_Controller.SM.Ack_all::total         9780                       (Unspecified)
system.caches.L1Cache_Controller.IS_I.DataS_fromL1 |           0      0.00%      0.00% |           4    100.00%    100.00% (Unspecified)
system.caches.L1Cache_Controller.IS_I.DataS_fromL1::total            4                       (Unspecified)
system.caches.L1Cache_Controller.IS_I.Data_all_Acks |           0      0.00%      0.00% |           4    100.00%    100.00% (Unspecified)
system.caches.L1Cache_Controller.IS_I.Data_all_Acks::total            4                       (Unspecified)
system.caches.L1Cache_Controller.M_I.WB_Ack |     6125474     49.98%     49.98% |     6130867     50.02%    100.00% (Unspecified)
system.caches.L1Cache_Controller.M_I.WB_Ack::total     12256341                       (Unspecified)
system.caches.Directory_Controller.Fetch        37010      0.00%      0.00% (Unspecified)
system.caches.Directory_Controller.Memory_Data        37010      0.00%      0.00% (Unspecified)
system.caches.Directory_Controller.I.Fetch        37010      0.00%      0.00% (Unspecified)
system.caches.Directory_Controller.IM.Memory_Data        37010      0.00%      0.00% (Unspecified)
system.caches.L2Cache_Controller.L1_GET_INSTR |       18569      9.94%      9.94% |       17067      9.14%     19.08% |       23071     12.36%     31.44% |       10114      5.42%     36.86% |       19331     10.35%     47.21% |       25360     13.58%     60.79% |       40354     21.61%     82.40% |       32863     17.60%    100.00% (Unspecified)
system.caches.L2Cache_Controller.L1_GET_INSTR::total       186729                       (Unspecified)
system.caches.L2Cache_Controller.L1_GETS |      772330     12.58%     12.58% |      768869     12.53%     25.11% |      764536     12.45%     37.56% |      764168     12.45%     50.01% |      765783     12.48%     62.49% |      766287     12.48%     74.97% |      770551     12.55%     87.52% |      765911     12.48%    100.00% (Unspecified)
system.caches.L2Cache_Controller.L1_GETS::total      6138435                       (Unspecified)
system.caches.L2Cache_Controller.L1_GETX |      784880     12.52%     12.52% |      782943     12.49%     25.02% |      781894     12.48%     37.49% |      783249     12.50%     49.99% |      782712     12.49%     62.48% |      784862     12.52%     75.00% |      783744     12.50%     87.50% |      783196     12.50%    100.00% (Unspecified)
system.caches.L2Cache_Controller.L1_GETX::total      6267480                       (Unspecified)
system.caches.L2Cache_Controller.L1_UPGRADE |        3460     33.02%     33.02% |        1944     18.55%     51.58% |           0      0.00%     51.58% |           0      0.00%     51.58% |          26      0.25%     51.83% |           1      0.01%     51.84% |        5015     47.87%     99.70% |          31      0.30%    100.00% (Unspecified)
system.caches.L2Cache_Controller.L1_UPGRADE::total        10477                       (Unspecified)
system.caches.L2Cache_Controller.L1_PUTX |     1530479     12.49%     12.49% |     1532717     12.51%     24.99% |     1528249     12.47%     37.46% |     1531704     12.50%     49.96% |     1532489     12.50%     62.46% |     1535310     12.53%     74.99% |     1533684     12.51%     87.50% |     1531709     12.50%    100.00% (Unspecified)
system.caches.L2Cache_Controller.L1_PUTX::total     12256341                       (Unspecified)
system.caches.L2Cache_Controller.Mem_Data |        4656     12.58%     12.58% |        4641     12.54%     25.12% |        4599     12.43%     37.55% |        4651     12.57%     50.11% |        4596     12.42%     62.53% |        4652     12.57%     75.10% |        4582     12.38%     87.48% |        4633     12.52%    100.00% (Unspecified)
system.caches.L2Cache_Controller.Mem_Data::total        37010                       (Unspecified)
system.caches.L2Cache_Controller.WB_Data |        3758     39.38%     39.38% |        1707     17.89%     57.26% |           0      0.00%     57.26% |           0      0.00%     57.26% |          32      0.34%     57.60% |           0      0.00%     57.60% |        4016     42.08%     99.68% |          31      0.32%    100.00% (Unspecified)
system.caches.L2Cache_Controller.WB_Data::total         9544                       (Unspecified)
system.caches.L2Cache_Controller.WB_Data_clean |          55      9.55%      9.55% |         282     48.96%     58.51% |          47      8.16%     66.67% |          34      5.90%     72.57% |          38      6.60%     79.17% |          41      7.12%     86.28% |          35      6.08%     92.36% |          44      7.64%    100.00% (Unspecified)
system.caches.L2Cache_Controller.WB_Data_clean::total          576                       (Unspecified)
system.caches.L2Cache_Controller.Unblock |        3813     37.68%     37.68% |        1989     19.65%     57.33% |          47      0.46%     57.80% |          34      0.34%     58.13% |          70      0.69%     58.82% |          41      0.41%     59.23% |        4051     40.03%     99.26% |          75      0.74%    100.00% (Unspecified)
system.caches.L2Cache_Controller.Unblock::total        10120                       (Unspecified)
system.caches.L2Cache_Controller.Exclusive_Unblock |     1536522     12.51%     12.51% |     1536740     12.51%     25.02% |     1530320     12.46%     37.48% |     1533776     12.49%     49.97% |     1534593     12.49%     62.46% |     1537388     12.52%     74.98% |     1539777     12.54%     87.51% |     1533811     12.49%    100.00% (Unspecified)
system.caches.L2Cache_Controller.Exclusive_Unblock::total     12282927                       (Unspecified)
system.caches.L2Cache_Controller.NP.L1_GET_INSTR |         176     12.78%     12.78% |         174     12.64%     25.42% |         173     12.56%     37.98% |         179     13.00%     50.98% |         170     12.35%     63.33% |         177     12.85%     76.18% |         162     11.76%     87.94% |         166     12.06%    100.00% (Unspecified)
system.caches.L2Cache_Controller.NP.L1_GET_INSTR::total         1377                       (Unspecified)
system.caches.L2Cache_Controller.NP.L1_GETS |        3435     12.56%     12.56% |        3433     12.55%     25.11% |        3392     12.40%     37.51% |        3445     12.59%     50.10% |        3398     12.42%     62.53% |        3438     12.57%     75.10% |        3383     12.37%     87.46% |        3429     12.54%    100.00% (Unspecified)
system.caches.L2Cache_Controller.NP.L1_GETS::total        27353                       (Unspecified)
system.caches.L2Cache_Controller.NP.L1_GETX |        1045     12.62%     12.62% |        1034     12.49%     25.11% |        1034     12.49%     37.60% |        1027     12.40%     50.00% |        1028     12.42%     62.42% |        1037     12.52%     74.94% |        1037     12.52%     87.46% |        1038     12.54%    100.00% (Unspecified)
system.caches.L2Cache_Controller.NP.L1_GETX::total         8280                       (Unspecified)
system.caches.L2Cache_Controller.SS.L1_GET_INSTR |       18384      9.92%      9.92% |       16880      9.11%     19.03% |       22888     12.35%     31.39% |        9928      5.36%     36.75% |       19151     10.34%     47.08% |       25169     13.58%     60.67% |       40183     21.69%     82.36% |       32689     17.64%    100.00% (Unspecified)
system.caches.L2Cache_Controller.SS.L1_GET_INSTR::total       185272                       (Unspecified)
system.caches.L2Cache_Controller.SS.L1_GETS |       20328     16.86%     16.86% |       15022     12.46%     29.32% |       16059     13.32%     42.64% |       13603     11.28%     53.93% |       13856     11.49%     65.42% |       13721     11.38%     76.80% |       12716     10.55%     87.35% |       15252     12.65%    100.00% (Unspecified)
system.caches.L2Cache_Controller.SS.L1_GETS::total       120557                       (Unspecified)
system.caches.L2Cache_Controller.SS.L1_GETX |         296     53.82%     53.82% |           0      0.00%     53.82% |           0      0.00%     53.82% |           0      0.00%     53.82% |           6      1.09%     54.91% |           0      0.00%     54.91% |         247     44.91%     99.82% |           1      0.18%    100.00% (Unspecified)
system.caches.L2Cache_Controller.SS.L1_GETX::total          550                       (Unspecified)
system.caches.L2Cache_Controller.SS.L1_UPGRADE |        3460     37.49%     37.49% |        1944     21.06%     58.55% |           0      0.00%     58.55% |           0      0.00%     58.55% |          26      0.28%     58.83% |           1      0.01%     58.84% |        3768     40.82%     99.66% |          31      0.34%    100.00% (Unspecified)
system.caches.L2Cache_Controller.SS.L1_UPGRADE::total         9230                       (Unspecified)
system.caches.L2Cache_Controller.M.L1_GETS |      744750     12.46%     12.46% |      748422     12.52%     24.97% |      745036     12.46%     37.44% |      747084     12.50%     49.93% |      748458     12.52%     62.45% |      749087     12.53%     74.98% |      748883     12.53%     87.50% |      747155     12.50%    100.00% (Unspecified)
system.caches.L2Cache_Controller.M.L1_GETS::total      5978875                       (Unspecified)
system.caches.L2Cache_Controller.M.L1_GETX |      783317     12.52%     12.52% |      781907     12.49%     25.01% |      780860     12.48%     37.49% |      782222     12.50%     49.99% |      781678     12.49%     62.48% |      783825     12.52%     75.00% |      782458     12.50%     87.50% |      782157     12.50%    100.00% (Unspecified)
system.caches.L2Cache_Controller.M.L1_GETX::total      6258424                       (Unspecified)
system.caches.L2Cache_Controller.MT.L1_GETS |        3813     37.68%     37.68% |        1989     19.65%     57.33% |          47      0.46%     57.80% |          34      0.34%     58.13% |          70      0.69%     58.82% |          41      0.41%     59.23% |        4051     40.03%     99.26% |          75      0.74%    100.00% (Unspecified)
system.caches.L2Cache_Controller.MT.L1_GETS::total        10120                       (Unspecified)
system.caches.L2Cache_Controller.MT.L1_GETX |         222     98.23%     98.23% |           2      0.88%     99.12% |           0      0.00%     99.12% |           0      0.00%     99.12% |           0      0.00%     99.12% |           0      0.00%     99.12% |           2      0.88%    100.00% |           0      0.00%    100.00% (Unspecified)
system.caches.L2Cache_Controller.MT.L1_GETX::total          226                       (Unspecified)
system.caches.L2Cache_Controller.MT.L1_PUTX |     1530479     12.49%     12.49% |     1532717     12.51%     24.99% |     1528249     12.47%     37.46% |     1531704     12.50%     49.96% |     1532489     12.50%     62.46% |     1535310     12.53%     74.99% |     1533684     12.51%     87.50% |     1531709     12.50%    100.00% (Unspecified)
system.caches.L2Cache_Controller.MT.L1_PUTX::total     12256341                       (Unspecified)
system.caches.L2Cache_Controller.ISS.L1_GETS |           3     27.27%     27.27% |           2     18.18%     45.45% |           2     18.18%     63.64% |           2     18.18%     81.82% |           1      9.09%     90.91% |           0      0.00%     90.91% |           1      9.09%    100.00% |           0      0.00%    100.00% (Unspecified)
system.caches.L2Cache_Controller.ISS.L1_GETS::total           11                       (Unspecified)
system.caches.L2Cache_Controller.ISS.Mem_Data |        3432     12.55%     12.55% |        3431     12.55%     25.10% |        3390     12.40%     37.50% |        3443     12.59%     50.09% |        3397     12.42%     62.52% |        3438     12.57%     75.09% |        3382     12.37%     87.46% |        3429     12.54%    100.00% (Unspecified)
system.caches.L2Cache_Controller.ISS.Mem_Data::total        27342                       (Unspecified)
system.caches.L2Cache_Controller.IS.L1_GET_INSTR |           9     11.25%     11.25% |          13     16.25%     27.50% |          10     12.50%     40.00% |           7      8.75%     48.75% |          10     12.50%     61.25% |          14     17.50%     78.75% |           9     11.25%     90.00% |           8     10.00%    100.00% (Unspecified)
system.caches.L2Cache_Controller.IS.L1_GET_INSTR::total           80                       (Unspecified)
system.caches.L2Cache_Controller.IS.Mem_Data |         179     12.90%     12.90% |         176     12.68%     25.58% |         175     12.61%     38.18% |         181     13.04%     51.22% |         171     12.32%     63.54% |         177     12.75%     76.30% |         163     11.74%     88.04% |         166     11.96%    100.00% (Unspecified)
system.caches.L2Cache_Controller.IS.Mem_Data::total         1388                       (Unspecified)
system.caches.L2Cache_Controller.IM.Mem_Data |        1045     12.62%     12.62% |        1034     12.49%     25.11% |        1034     12.49%     37.60% |        1027     12.40%     50.00% |        1028     12.42%     62.42% |        1037     12.52%     74.94% |        1037     12.52%     87.46% |        1038     12.54%    100.00% (Unspecified)
system.caches.L2Cache_Controller.IM.Mem_Data::total         8280                       (Unspecified)
system.caches.L2Cache_Controller.SS_MB.L1_GETS |           1      0.07%      0.07% |           0      0.00%      0.07% |           0      0.00%      0.07% |           0      0.00%      0.07% |           0      0.00%      0.07% |           0      0.00%      0.07% |        1517     99.93%    100.00% |           0      0.00%    100.00% (Unspecified)
system.caches.L2Cache_Controller.SS_MB.L1_GETS::total         1518                       (Unspecified)
system.caches.L2Cache_Controller.SS_MB.Exclusive_Unblock |        3756     38.40%     38.40% |        1944     19.88%     58.28% |           0      0.00%     58.28% |           0      0.00%     58.28% |          32      0.33%     58.61% |           1      0.01%     58.62% |        4015     41.05%     99.67% |          32      0.33%    100.00% (Unspecified)
system.caches.L2Cache_Controller.SS_MB.Exclusive_Unblock::total         9780                       (Unspecified)
system.caches.L2Cache_Controller.MT_MB.L1_GETS |           0      0.00%      0.00% |           1    100.00%    100.00% |           0      0.00%    100.00% |           0      0.00%    100.00% |           0      0.00%    100.00% |           0      0.00%    100.00% |           0      0.00%    100.00% |           0      0.00%    100.00% (Unspecified)
system.caches.L2Cache_Controller.MT_MB.L1_GETS::total            1                       (Unspecified)
system.caches.L2Cache_Controller.MT_MB.Exclusive_Unblock |     1532766     12.49%     12.49% |     1534796     12.51%     24.99% |     1530320     12.47%     37.46% |     1533776     12.50%     49.96% |     1534561     12.50%     62.46% |     1537387     12.53%     74.99% |     1535762     12.51%     87.50% |     1533779     12.50%    100.00% (Unspecified)
system.caches.L2Cache_Controller.MT_MB.Exclusive_Unblock::total     12273147                       (Unspecified)
system.caches.L2Cache_Controller.MT_IIB.WB_Data |        3758     39.38%     39.38% |        1707     17.89%     57.26% |           0      0.00%     57.26% |           0      0.00%     57.26% |          32      0.34%     57.60% |           0      0.00%     57.60% |        4016     42.08%     99.68% |          31      0.32%    100.00% (Unspecified)
system.caches.L2Cache_Controller.MT_IIB.WB_Data::total         9544                       (Unspecified)
system.caches.L2Cache_Controller.MT_IIB.WB_Data_clean |          55      9.55%      9.55% |         282     48.96%     58.51% |          47      8.16%     66.67% |          34      5.90%     72.57% |          38      6.60%     79.17% |          41      7.12%     86.28% |          35      6.08%     92.36% |          44      7.64%    100.00% (Unspecified)
system.caches.L2Cache_Controller.MT_IIB.WB_Data_clean::total          576                       (Unspecified)
system.caches.L2Cache_Controller.MT_SB.L1_UPGRADE |           0      0.00%      0.00% |           0      0.00%      0.00% |           0      0.00%      0.00% |           0      0.00%      0.00% |           0      0.00%      0.00% |           0      0.00%      0.00% |        1247    100.00%    100.00% |           0      0.00%    100.00% (Unspecified)
system.caches.L2Cache_Controller.MT_SB.L1_UPGRADE::total         1247                       (Unspecified)
system.caches.L2Cache_Controller.MT_SB.Unblock |        3813     37.68%     37.68% |        1989     19.65%     57.33% |          47      0.46%     57.80% |          34      0.34%     58.13% |          70      0.69%     58.82% |          41      0.41%     59.23% |        4051     40.03%     99.26% |          75      0.74%    100.00% (Unspecified)
system.caches.L2Cache_Controller.MT_SB.Unblock::total        10120                       (Unspecified)
system.caches.RequestType.LD.latency_hist_seqr::bucket_size          256                       (Unspecified)
system.caches.RequestType.LD.latency_hist_seqr::max_bucket         2559                       (Unspecified)
system.caches.RequestType.LD.latency_hist_seqr::samples    906361171                       (Unspecified)
system.caches.RequestType.LD.latency_hist_seqr::mean     1.108619                       (Unspecified)
system.caches.RequestType.LD.latency_hist_seqr::gmean     1.018483                       (Unspecified)
system.caches.RequestType.LD.latency_hist_seqr::stdev     3.235134                       (Unspecified)
system.caches.RequestType.LD.latency_hist_seqr |   906333807    100.00%    100.00% |       23741      0.00%    100.00% |        2408      0.00%    100.00% |         295      0.00%    100.00% |         140      0.00%    100.00% |         222      0.00%    100.00% |         230      0.00%    100.00% |         325      0.00%    100.00% |           3      0.00%    100.00% |           0      0.00%    100.00% (Unspecified)
system.caches.RequestType.LD.latency_hist_seqr::total    906361171                       (Unspecified)
system.caches.RequestType.LD.hit_latency_hist_seqr::bucket_size            1                       (Unspecified)
system.caches.RequestType.LD.hit_latency_hist_seqr::max_bucket            9                       (Unspecified)
system.caches.RequestType.LD.hit_latency_hist_seqr::samples    900224255                       (Unspecified)
system.caches.RequestType.LD.hit_latency_hist_seqr::mean            1                       (Unspecified)
system.caches.RequestType.LD.hit_latency_hist_seqr::gmean            1                       (Unspecified)
system.caches.RequestType.LD.hit_latency_hist_seqr |           0      0.00%      0.00% |   900224255    100.00%    100.00% |           0      0.00%    100.00% |           0      0.00%    100.00% |           0      0.00%    100.00% |           0      0.00%    100.00% |           0      0.00%    100.00% |           0      0.00%    100.00% |           0      0.00%    100.00% |           0      0.00%    100.00% (Unspecified)
system.caches.RequestType.LD.hit_latency_hist_seqr::total    900224255                       (Unspecified)
system.caches.RequestType.LD.miss_latency_hist_seqr::bucket_size          256                       (Unspecified)
system.caches.RequestType.LD.miss_latency_hist_seqr::max_bucket         2559                       (Unspecified)
system.caches.RequestType.LD.miss_latency_hist_seqr::samples      6136916                       (Unspecified)
system.caches.RequestType.LD.miss_latency_hist_seqr::mean    17.041991                       (Unspecified)
system.caches.RequestType.LD.miss_latency_hist_seqr::gmean    14.952062                       (Unspecified)
system.caches.RequestType.LD.miss_latency_hist_seqr::stdev    35.918444                       (Unspecified)
system.caches.RequestType.LD.miss_latency_hist_seqr |     6109552     99.55%     99.55% |       23741      0.39%     99.94% |        2408      0.04%     99.98% |         295      0.00%     99.99% |         140      0.00%     99.99% |         222      0.00%     99.99% |         230      0.00%     99.99% |         325      0.01%    100.00% |           3      0.00%    100.00% |           0      0.00%    100.00% (Unspecified)
system.caches.RequestType.LD.miss_latency_hist_seqr::total      6136916                       (Unspecified)
system.caches.RequestType.ST.latency_hist_seqr::bucket_size          256                       (Unspecified)
system.caches.RequestType.ST.latency_hist_seqr::max_bucket         2559                       (Unspecified)
system.caches.RequestType.ST.latency_hist_seqr::samples    385090133                       (Unspecified)
system.caches.RequestType.ST.latency_hist_seqr::mean     1.245423                       (Unspecified)
system.caches.RequestType.ST.latency_hist_seqr::gmean     1.045468                       (Unspecified)
system.caches.RequestType.ST.latency_hist_seqr::stdev     3.071379                       (Unspecified)
system.caches.RequestType.ST.latency_hist_seqr |   385081949    100.00%    100.00% |        7488      0.00%    100.00% |         494      0.00%    100.00% |          19      0.00%    100.00% |           0      0.00%    100.00% |           6      0.00%    100.00% |          65      0.00%    100.00% |         110      0.00%    100.00% |           2      0.00%    100.00% |           0      0.00%    100.00% (Unspecified)
system.caches.RequestType.ST.latency_hist_seqr::total    385090133                       (Unspecified)
system.caches.RequestType.ST.hit_latency_hist_seqr::bucket_size            1                       (Unspecified)
system.caches.RequestType.ST.hit_latency_hist_seqr::max_bucket            9                       (Unspecified)
system.caches.RequestType.ST.hit_latency_hist_seqr::samples    378826279                       (Unspecified)
system.caches.RequestType.ST.hit_latency_hist_seqr::mean            1                       (Unspecified)
system.caches.RequestType.ST.hit_latency_hist_seqr::gmean            1                       (Unspecified)
system.caches.RequestType.ST.hit_latency_hist_seqr |           0      0.00%      0.00% |   378826279    100.00%    100.00% |           0      0.00%    100.00% |           0      0.00%    100.00% |           0      0.00%    100.00% |           0      0.00%    100.00% |           0      0.00%    100.00% |           0      0.00%    100.00% |           0      0.00%    100.00% |           0      0.00%    100.00% (Unspecified)
system.caches.RequestType.ST.hit_latency_hist_seqr::total    378826279                       (Unspecified)
system.caches.RequestType.ST.miss_latency_hist_seqr::bucket_size          256                       (Unspecified)
system.caches.RequestType.ST.miss_latency_hist_seqr::max_bucket         2559                       (Unspecified)
system.caches.RequestType.ST.miss_latency_hist_seqr::samples      6263854                       (Unspecified)
system.caches.RequestType.ST.miss_latency_hist_seqr::mean    16.088149                       (Unspecified)
system.caches.RequestType.ST.miss_latency_hist_seqr::gmean    15.387808                       (Unspecified)
system.caches.RequestType.ST.miss_latency_hist_seqr::stdev    18.867878                       (Unspecified)
system.caches.RequestType.ST.miss_latency_hist_seqr |     6255670     99.87%     99.87% |        7488      0.12%     99.99% |         494      0.01%    100.00% |          19      0.00%    100.00% |           0      0.00%    100.00% |           6      0.00%    100.00% |          65      0.00%    100.00% |         110      0.00%    100.00% |           2      0.00%    100.00% |           0      0.00%    100.00% (Unspecified)
system.caches.RequestType.ST.miss_latency_hist_seqr::total      6263854                       (Unspecified)
system.caches.RequestType.IFETCH.latency_hist_seqr::bucket_size          256                       (Unspecified)
system.caches.RequestType.IFETCH.latency_hist_seqr::max_bucket         2559                       (Unspecified)
system.caches.RequestType.IFETCH.latency_hist_seqr::samples   6608911345                       (Unspecified)
system.caches.RequestType.IFETCH.latency_hist_seqr::mean     1.000451                       (Unspecified)
system.caches.RequestType.IFETCH.latency_hist_seqr::gmean     1.000073                       (Unspecified)
system.caches.RequestType.IFETCH.latency_hist_seqr::stdev     0.271230                       (Unspecified)
system.caches.RequestType.IFETCH.latency_hist_seqr |  6608909892    100.00%    100.00% |         997      0.00%    100.00% |         423      0.00%    100.00% |           2      0.00%    100.00% |           0      0.00%    100.00% |           0      0.00%    100.00% |          12      0.00%    100.00% |          18      0.00%    100.00% |           1      0.00%    100.00% |           0      0.00%    100.00% (Unspecified)
system.caches.RequestType.IFETCH.latency_hist_seqr::total   6608911345                       (Unspecified)
system.caches.RequestType.IFETCH.hit_latency_hist_seqr::bucket_size            1                       (Unspecified)
system.caches.RequestType.IFETCH.hit_latency_hist_seqr::max_bucket            9                       (Unspecified)
system.caches.RequestType.IFETCH.hit_latency_hist_seqr::samples   6608724616                       (Unspecified)
system.caches.RequestType.IFETCH.hit_latency_hist_seqr::mean            1                       (Unspecified)
system.caches.RequestType.IFETCH.hit_latency_hist_seqr::gmean            1                       (Unspecified)
system.caches.RequestType.IFETCH.hit_latency_hist_seqr |           0      0.00%      0.00% |  6608724616    100.00%    100.00% |           0      0.00%    100.00% |           0      0.00%    100.00% |           0      0.00%    100.00% |           0      0.00%    100.00% |           0      0.00%    100.00% |           0      0.00%    100.00% |           0      0.00%    100.00% |           0      0.00%    100.00% (Unspecified)
system.caches.RequestType.IFETCH.hit_latency_hist_seqr::total   6608724616                       (Unspecified)
system.caches.RequestType.IFETCH.miss_latency_hist_seqr::bucket_size          256                       (Unspecified)
system.caches.RequestType.IFETCH.miss_latency_hist_seqr::max_bucket         2559                       (Unspecified)
system.caches.RequestType.IFETCH.miss_latency_hist_seqr::samples       186729                       (Unspecified)
system.caches.RequestType.IFETCH.miss_latency_hist_seqr::mean    16.973063                       (Unspecified)
system.caches.RequestType.IFETCH.miss_latency_hist_seqr::gmean    13.376447                       (Unspecified)
system.caches.RequestType.IFETCH.miss_latency_hist_seqr::stdev    48.462246                       (Unspecified)
system.caches.RequestType.IFETCH.miss_latency_hist_seqr |      185276     99.22%     99.22% |         997      0.53%     99.76% |         423      0.23%     99.98% |           2      0.00%     99.98% |           0      0.00%     99.98% |           0      0.00%     99.98% |          12      0.01%     99.99% |          18      0.01%    100.00% |           1      0.00%    100.00% |           0      0.00%    100.00% (Unspecified)
system.caches.RequestType.IFETCH.miss_latency_hist_seqr::total       186729                       (Unspecified)
system.caches.RequestType.RMW_Read.latency_hist_seqr::bucket_size          256                       (Unspecified)
system.caches.RequestType.RMW_Read.latency_hist_seqr::max_bucket         2559                       (Unspecified)
system.caches.RequestType.RMW_Read.latency_hist_seqr::samples       178474                       (Unspecified)
system.caches.RequestType.RMW_Read.latency_hist_seqr::mean     2.192824                       (Unspecified)
system.caches.RequestType.RMW_Read.latency_hist_seqr::gmean     1.196995                       (Unspecified)
system.caches.RequestType.RMW_Read.latency_hist_seqr::stdev    11.435464                       (Unspecified)
system.caches.RequestType.RMW_Read.latency_hist_seqr |      178420     99.97%     99.97% |          20      0.01%     99.98% |          29      0.02%    100.00% |           4      0.00%    100.00% |           0      0.00%    100.00% |           0      0.00%    100.00% |           0      0.00%    100.00% |           1      0.00%    100.00% |           0      0.00%    100.00% |           0      0.00%    100.00% (Unspecified)
system.caches.RequestType.RMW_Read.latency_hist_seqr::total       178474                       (Unspecified)
system.caches.RequestType.RMW_Read.hit_latency_hist_seqr::bucket_size            1                       (Unspecified)
system.caches.RequestType.RMW_Read.hit_latency_hist_seqr::max_bucket            9                       (Unspecified)
system.caches.RequestType.RMW_Read.hit_latency_hist_seqr::samples       167250                       (Unspecified)
system.caches.RequestType.RMW_Read.hit_latency_hist_seqr::mean            1                       (Unspecified)
system.caches.RequestType.RMW_Read.hit_latency_hist_seqr::gmean            1                       (Unspecified)
system.caches.RequestType.RMW_Read.hit_latency_hist_seqr |           0      0.00%      0.00% |      167250    100.00%    100.00% |           0      0.00%    100.00% |           0      0.00%    100.00% |           0      0.00%    100.00% |           0      0.00%    100.00% |           0      0.00%    100.00% |           0      0.00%    100.00% |           0      0.00%    100.00% |           0      0.00%    100.00% (Unspecified)
system.caches.RequestType.RMW_Read.hit_latency_hist_seqr::total       167250                       (Unspecified)
system.caches.RequestType.RMW_Read.miss_latency_hist_seqr::bucket_size          256                       (Unspecified)
system.caches.RequestType.RMW_Read.miss_latency_hist_seqr::max_bucket         2559                       (Unspecified)
system.caches.RequestType.RMW_Read.miss_latency_hist_seqr::samples        11224                       (Unspecified)
system.caches.RequestType.RMW_Read.miss_latency_hist_seqr::mean    19.967213                       (Unspecified)
system.caches.RequestType.RMW_Read.miss_latency_hist_seqr::gmean    17.448459                       (Unspecified)
system.caches.RequestType.RMW_Read.miss_latency_hist_seqr::stdev    41.742040                       (Unspecified)
system.caches.RequestType.RMW_Read.miss_latency_hist_seqr |       11170     99.52%     99.52% |          20      0.18%     99.70% |          29      0.26%     99.96% |           4      0.04%     99.99% |           0      0.00%     99.99% |           0      0.00%     99.99% |           0      0.00%     99.99% |           1      0.01%    100.00% |           0      0.00%    100.00% |           0      0.00%    100.00% (Unspecified)
system.caches.RequestType.RMW_Read.miss_latency_hist_seqr::total        11224                       (Unspecified)
system.caches.RequestType.Locked_RMW_Read.latency_hist_seqr::bucket_size          128                       (Unspecified)
system.caches.RequestType.Locked_RMW_Read.latency_hist_seqr::max_bucket         1279                       (Unspecified)
system.caches.RequestType.Locked_RMW_Read.latency_hist_seqr::samples        34490                       (Unspecified)
system.caches.RequestType.Locked_RMW_Read.latency_hist_seqr::mean     2.370136                       (Unspecified)
system.caches.RequestType.Locked_RMW_Read.latency_hist_seqr::gmean     1.146514                       (Unspecified)
system.caches.RequestType.Locked_RMW_Read.latency_hist_seqr::stdev    19.304184                       (Unspecified)
[...]
system.timingCpu0.exec_context.thread_0.statExecutedInstType::SimdFloatMultAcc            0      0.00%     83.99% # Class of executed instruction. (Count)
system.timingCpu0.exec_context.thread_0.statExecutedInstType::SimdFloatSqrt      9817446      0.24%     84.23% # Class of executed instruction. (Count)
system.timingCpu0.exec_context.thread_0.statExecutedInstType::SimdReduceAdd            0      0.00%     84.23% # Class of executed instruction. (Count)
system.timingCpu0.exec_context.thread_0.statExecutedInstType::SimdReduceAlu            0      0.00%     84.23% # Class of executed instruction. (Count)
system.timingCpu0.exec_context.thread_0.statExecutedInstType::SimdReduceCmp            0      0.00%     84.23% # Class of executed instruction. (Count)
system.timingCpu0.exec_context.thread_0.statExecutedInstType::SimdFloatReduceAdd            0      0.00%     84.23% # Class of executed instruction. (Count)
system.timingCpu0.exec_context.thread_0.statExecutedInstType::SimdFloatReduceCmp            0      0.00%     84.23% # Class of executed instruction. (Count)
system.timingCpu0.exec_context.thread_0.statExecutedInstType::SimdAes            0      0.00%     84.23% # Class of executed instruction. (Count)
system.timingCpu0.exec_context.thread_0.statExecutedInstType::SimdAesMix            0      0.00%     84.23% # Class of executed instruction. (Count)
system.timingCpu0.exec_context.thread_0.statExecutedInstType::SimdSha1Hash            0      0.00%     84.23% # Class of executed instruction. (Count)
system.timingCpu0.exec_context.thread_0.statExecutedInstType::SimdSha1Hash2            0      0.00%     84.23% # Class of executed instruction. (Count)
system.timingCpu0.exec_context.thread_0.statExecutedInstType::SimdSha256Hash            0      0.00%     84.23% # Class of executed instruction. (Count)
system.timingCpu0.exec_context.thread_0.statExecutedInstType::SimdSha256Hash2            0      0.00%     84.23% # Class of executed instruction. (Count)
system.timingCpu0.exec_context.thread_0.statExecutedInstType::SimdShaSigma2            0      0.00%     84.23% # Class of executed instruction. (Count)
system.timingCpu0.exec_context.thread_0.statExecutedInstType::SimdShaSigma3            0      0.00%     84.23% # Class of executed instruction. (Count)
system.timingCpu0.exec_context.thread_0.statExecutedInstType::SimdPredAlu            0      0.00%     84.23% # Class of executed instruction. (Count)
system.timingCpu0.exec_context.thread_0.statExecutedInstType::MemRead    119522917      2.92%     87.15% # Class of executed instruction. (Count)
system.timingCpu0.exec_context.thread_0.statExecutedInstType::MemWrite     89161770      2.18%     89.33% # Class of executed instruction. (Count)
system.timingCpu0.exec_context.thread_0.statExecutedInstType::FloatMemRead    333381934      8.14%     97.47% # Class of executed instruction. (Count)
system.timingCpu0.exec_context.thread_0.statExecutedInstType::FloatMemWrite    103569795      2.53%    100.00% # Class of executed instruction. (Count)
system.timingCpu0.exec_context.thread_0.statExecutedInstType::IprAccess            0      0.00%    100.00% # Class of executed instruction. (Count)
system.timingCpu0.exec_context.thread_0.statExecutedInstType::InstPrefetch            0      0.00%    100.00% # Class of executed instruction. (Count)
system.timingCpu0.exec_context.thread_0.statExecutedInstType::total   4094425174                       # Class of executed instruction. (Count)
system.timingCpu0.mmu.dtb.rdAccesses        452970229                       # TLB accesses on read requests (Count)
system.timingCpu0.mmu.dtb.wrAccesses        192742046                       # TLB accesses on write requests (Count)
system.timingCpu0.mmu.dtb.rdMisses              65405                       # TLB misses on read requests (Count)
system.timingCpu0.mmu.dtb.wrMisses              10502                       # TLB misses on write requests (Count)
system.timingCpu0.mmu.dtb.walker.power_state.pwrStateResidencyTicks::UNDEFINED 19807295767750                       # Cumulative time (in ticks) in various power states (Tick)
system.timingCpu0.mmu.itb.rdAccesses                0                       # TLB accesses on read requests (Count)
system.timingCpu0.mmu.itb.wrAccesses       3304653931                       # TLB accesses on write requests (Count)
system.timingCpu0.mmu.itb.rdMisses                  0                       # TLB misses on read requests (Count)
system.timingCpu0.mmu.itb.wrMisses              13179                       # TLB misses on write requests (Count)
system.timingCpu0.mmu.itb.walker.power_state.pwrStateResidencyTicks::UNDEFINED 19807295767750                       # Cumulative time (in ticks) in various power states (Tick)
system.timingCpu0.power_state.pwrStateResidencyTicks::OFF 19807295767750                       # Cumulative time (in ticks) in various power states (Tick)
system.timingCpu0.thread_0.numInsts                 0                       # Number of Instructions committed (Count)
system.timingCpu0.thread_0.numOps                   0                       # Number of Ops committed (Count)
system.timingCpu0.thread_0.numMemRefs               0                       # Number of Memory References (Count)
system.timingCpu1.numCycles                7999999999                       # Number of cpu cycles simulated (Cycle)
system.timingCpu1.numWorkItemsStarted               0                       # Number of work items this cpu started (Count)
system.timingCpu1.numWorkItemsCompleted             0                       # Number of work items this cpu completed (Count)
system.timingCpu1.exec_context.thread_0.numInsts   2298221810                       # Number of instructions committed (Count)
system.timingCpu1.exec_context.thread_0.numOps   4092275897                       # Number of ops (including micro ops) committed (Count)
system.timingCpu1.exec_context.thread_0.numIntAluAccesses   2406727709                       # Number of integer alu accesses (Count)
system.timingCpu1.exec_context.thread_0.numFpAluAccesses   2224397934                       # Number of float alu accesses (Count)
system.timingCpu1.exec_context.thread_0.numVecAluAccesses            0                       # Number of vector alu accesses (Count)
system.timingCpu1.exec_context.thread_0.numCallsReturns     19982822                       # Number of times a function call or return occured (Count)
system.timingCpu1.exec_context.thread_0.numCondCtrlInsts    158569161                       # Number of instructions that are conditional controls (Count)
system.timingCpu1.exec_context.thread_0.numIntInsts   2406727709                       # Number of integer instructions (Count)
system.timingCpu1.exec_context.thread_0.numFpInsts   2224397934                       # Number of float instructions (Count)
system.timingCpu1.exec_context.thread_0.numVecInsts            0                       # Number of vector instructions (Count)
system.timingCpu1.exec_context.thread_0.numIntRegReads   2734381634                       # Number of times the integer registers were read (Count)
system.timingCpu1.exec_context.thread_0.numIntRegWrites   1549710596                       # Number of times the integer registers were written (Count)
system.timingCpu1.exec_context.thread_0.numFpRegReads   3726062868                       # Number of times the floating registers were read (Count)
system.timingCpu1.exec_context.thread_0.numFpRegWrites   1991363389                       # Number of times the floating registers were written (Count)
system.timingCpu1.exec_context.thread_0.numVecRegReads            0                       # Number of times the vector registers were read (Count)
system.timingCpu1.exec_context.thread_0.numVecRegWrites            0                       # Number of times the vector registers were written (Count)
system.timingCpu1.exec_context.thread_0.numVecPredRegReads            0                       # Number of times the predicate registers were read (Count)
system.timingCpu1.exec_context.thread_0.numVecPredRegWrites            0                       # Number of times the predicate registers were written (Count)
system.timingCpu1.exec_context.thread_0.numCCRegReads   1115915249                       # Number of times the CC registers were read (Count)
system.timingCpu1.exec_context.thread_0.numCCRegWrites    824613874                       # Number of times the CC registers were written (Count)
system.timingCpu1.exec_context.thread_0.numMiscRegReads   1247400111                       # Number of times the Misc registers were read (Count)
system.timingCpu1.exec_context.thread_0.numMiscRegWrites        75496                       # Number of times the Misc registers were written (Count)
system.timingCpu1.exec_context.thread_0.numMemRefs    644997323                       # Number of memory refs (Count)
system.timingCpu1.exec_context.thread_0.numLoadInsts    452599569                       # Number of load instructions (Count)
system.timingCpu1.exec_context.thread_0.numStoreInsts    192397754                       # Number of store instructions (Count)
system.timingCpu1.exec_context.thread_0.numIdleCycles            0                       # Number of idle cycles (Cycle)
system.timingCpu1.exec_context.thread_0.numBusyCycles   7999999999                       # Number of busy cycles (Cycle)
system.timingCpu1.exec_context.thread_0.notIdleFraction            1                       # Percentage of non-idle cycles (Ratio)
system.timingCpu1.exec_context.thread_0.idleFraction            0                       # Percentage of idle cycles (Ratio)
system.timingCpu1.exec_context.thread_0.numBranches    220166943                       # Number of branches fetched (Count)
system.timingCpu1.exec_context.thread_0.statExecutedInstType::No_OpClass        12763      0.00%      0.00% # Class of executed instruction. (Count)
system.timingCpu1.exec_context.thread_0.statExecutedInstType::IntAlu   2132641671     52.11%     52.11% # Class of executed instruction. (Count)
system.timingCpu1.exec_context.thread_0.statExecutedInstType::IntMult     25052561      0.61%     52.73% # Class of executed instruction. (Count)
system.timingCpu1.exec_context.thread_0.statExecutedInstType::IntDiv        93007      0.00%     52.73% # Class of executed instruction. (Count)
system.timingCpu1.exec_context.thread_0.statExecutedInstType::FloatAdd    190190691      4.65%     57.38% # Class of executed instruction. (Count)
system.timingCpu1.exec_context.thread_0.statExecutedInstType::FloatCmp            0      0.00%     57.38% # Class of executed instruction. (Count)
system.timingCpu1.exec_context.thread_0.statExecutedInstType::FloatCvt           32      0.00%     57.38% # Class of executed instruction. (Count)
system.timingCpu1.exec_context.thread_0.statExecutedInstType::FloatMult            0      0.00%     57.38% # Class of executed instruction. (Count)
system.timingCpu1.exec_context.thread_0.statExecutedInstType::FloatMultAcc            0      0.00%     57.38% # Class of executed instruction. (Count)
system.timingCpu1.exec_context.thread_0.statExecutedInstType::FloatDiv            0      0.00%     57.38% # Class of executed instruction. (Count)
system.timingCpu1.exec_context.thread_0.statExecutedInstType::FloatMisc            0      0.00%     57.38% # Class of executed instruction. (Count)
system.timingCpu1.exec_context.thread_0.statExecutedInstType::FloatSqrt            0      0.00%     57.38% # Class of executed instruction. (Count)
system.timingCpu1.exec_context.thread_0.statExecutedInstType::SimdAdd            0      0.00%     57.38% # Class of executed instruction. (Count)
system.timingCpu1.exec_context.thread_0.statExecutedInstType::SimdAddAcc            0      0.00%     57.38% # Class of executed instruction. (Count)
system.timingCpu1.exec_context.thread_0.statExecutedInstType::SimdAlu    312859618      7.65%     65.02% # Class of executed instruction. (Count)
system.timingCpu1.exec_context.thread_0.statExecutedInstType::SimdCmp            0      0.00%     65.02% # Class of executed instruction. (Count)
system.timingCpu1.exec_context.thread_0.statExecutedInstType::SimdCvt            0      0.00%     65.02% # Class of executed instruction. (Count)
system.timingCpu1.exec_context.thread_0.statExecutedInstType::SimdMisc    102091104      2.49%     67.52% # Class of executed instruction. (Count)
system.timingCpu1.exec_context.thread_0.statExecutedInstType::SimdMult            0      0.00%     67.52% # Class of executed instruction. (Count)
system.timingCpu1.exec_context.thread_0.statExecutedInstType::SimdMultAcc            0      0.00%     67.52% # Class of executed instruction. (Count)
system.timingCpu1.exec_context.thread_0.statExecutedInstType::SimdShift            0      0.00%     67.52% # Class of executed instruction. (Count)
system.timingCpu1.exec_context.thread_0.statExecutedInstType::SimdShiftAcc            0      0.00%     67.52% # Class of executed instruction. (Count)
system.timingCpu1.exec_context.thread_0.statExecutedInstType::SimdDiv            0      0.00%     67.52% # Class of executed instruction. (Count)
system.timingCpu1.exec_context.thread_0.statExecutedInstType::SimdSqrt            0      0.00%     67.52% # Class of executed instruction. (Count)
system.timingCpu1.exec_context.thread_0.statExecutedInstType::SimdFloatAdd    329502737      8.05%     75.57% # Class of executed instruction. (Count)
system.timingCpu1.exec_context.thread_0.statExecutedInstType::SimdFloatAlu            0      0.00%     75.57% # Class of executed instruction. (Count)
system.timingCpu1.exec_context.thread_0.statExecutedInstType::SimdFloatCmp            0      0.00%     75.57% # Class of executed instruction. (Count)
system.timingCpu1.exec_context.thread_0.statExecutedInstType::SimdFloatCvt    149278273      3.65%     79.22% # Class of executed instruction. (Count)
system.timingCpu1.exec_context.thread_0.statExecutedInstType::SimdFloatDiv      9818826      0.24%     79.46% # Class of executed instruction. (Count)
system.timingCpu1.exec_context.thread_0.statExecutedInstType::SimdFloatMisc            0      0.00%     79.46% # Class of executed instruction. (Count)
system.timingCpu1.exec_context.thread_0.statExecutedInstType::SimdFloatMult    185918465      4.54%     84.00% # Class of executed instruction. (Count)
system.timingCpu1.exec_context.thread_0.statExecutedInstType::SimdFloatMultAcc            0      0.00%     84.00% # Class of executed instruction. (Count)
system.timingCpu1.exec_context.thread_0.statExecutedInstType::SimdFloatSqrt      9818826      0.24%     84.24% # Class of executed instruction. (Count)
system.timingCpu1.exec_context.thread_0.statExecutedInstType::SimdReduceAdd            0      0.00%     84.24% # Class of executed instruction. (Count)
system.timingCpu1.exec_context.thread_0.statExecutedInstType::SimdReduceAlu            0      0.00%     84.24% # Class of executed instruction. (Count)
system.timingCpu1.exec_context.thread_0.statExecutedInstType::SimdReduceCmp            0      0.00%     84.24% # Class of executed instruction. (Count)
system.timingCpu1.exec_context.thread_0.statExecutedInstType::SimdFloatReduceAdd            0      0.00%     84.24% # Class of executed instruction. (Count)
system.timingCpu1.exec_context.thread_0.statExecutedInstType::SimdFloatReduceCmp            0      0.00%     84.24% # Class of executed instruction. (Count)
system.timingCpu1.exec_context.thread_0.statExecutedInstType::SimdAes            0      0.00%     84.24% # Class of executed instruction. (Count)
system.timingCpu1.exec_context.thread_0.statExecutedInstType::SimdAesMix            0      0.00%     84.24% # Class of executed instruction. (Count)
system.timingCpu1.exec_context.thread_0.statExecutedInstType::SimdSha1Hash            0      0.00%     84.24% # Class of executed instruction. (Count)
system.timingCpu1.exec_context.thread_0.statExecutedInstType::SimdSha1Hash2            0      0.00%     84.24% # Class of executed instruction. (Count)
system.timingCpu1.exec_context.thread_0.statExecutedInstType::SimdSha256Hash            0      0.00%     84.24% # Class of executed instruction. (Count)
system.timingCpu1.exec_context.thread_0.statExecutedInstType::SimdSha256Hash2            0      0.00%     84.24% # Class of executed instruction. (Count)
system.timingCpu1.exec_context.thread_0.statExecutedInstType::SimdShaSigma2            0      0.00%     84.24% # Class of executed instruction. (Count)
system.timingCpu1.exec_context.thread_0.statExecutedInstType::SimdShaSigma3            0      0.00%     84.24% # Class of executed instruction. (Count)
system.timingCpu1.exec_context.thread_0.statExecutedInstType::SimdPredAlu            0      0.00%     84.24% # Class of executed instruction. (Count)
system.timingCpu1.exec_context.thread_0.statExecutedInstType::MemRead    119174580      2.91%     87.15% # Class of executed instruction. (Count)
system.timingCpu1.exec_context.thread_0.statExecutedInstType::MemWrite     88836885      2.17%     89.32% # Class of executed instruction. (Count)
system.timingCpu1.exec_context.thread_0.statExecutedInstType::FloatMemRead    333424989      8.15%     97.47% # Class of executed instruction. (Count)
system.timingCpu1.exec_context.thread_0.statExecutedInstType::FloatMemWrite    103560869      2.53%    100.00% # Class of executed instruction. (Count)
system.timingCpu1.exec_context.thread_0.statExecutedInstType::IprAccess            0      0.00%    100.00% # Class of executed instruction. (Count)
system.timingCpu1.exec_context.thread_0.statExecutedInstType::InstPrefetch            0      0.00%    100.00% # Class of executed instruction. (Count)
system.timingCpu1.exec_context.thread_0.statExecutedInstType::total   4092275897                       # Class of executed instruction. (Count)
system.timingCpu1.mmu.dtb.rdAccesses        452713535                       # TLB accesses on read requests (Count)
system.timingCpu1.mmu.dtb.wrAccesses        192452608                       # TLB accesses on write requests (Count)
system.timingCpu1.mmu.dtb.rdMisses             115563                       # TLB misses on read requests (Count)
system.timingCpu1.mmu.dtb.wrMisses              55320                       # TLB misses on write requests (Count)
system.timingCpu1.mmu.dtb.walker.power_state.pwrStateResidencyTicks::UNDEFINED 19807295767750                       # Cumulative time (in ticks) in various power states (Tick)
system.timingCpu1.mmu.itb.rdAccesses                0                       # TLB accesses on read requests (Count)
system.timingCpu1.mmu.itb.wrAccesses       3304283685                       # TLB accesses on write requests (Count)
system.timingCpu1.mmu.itb.rdMisses                  0                       # TLB misses on read requests (Count)
system.timingCpu1.mmu.itb.wrMisses              13092                       # TLB misses on write requests (Count)
system.timingCpu1.mmu.itb.walker.power_state.pwrStateResidencyTicks::UNDEFINED 19807295767750                       # Cumulative time (in ticks) in various power states (Tick)
system.timingCpu1.power_state.pwrStateResidencyTicks::OFF 19807295767750                       # Cumulative time (in ticks) in various power states (Tick)
system.timingCpu1.thread_0.numInsts                 0                       # Number of Instructions committed (Count)
system.timingCpu1.thread_0.numOps                   0                       # Number of Ops committed (Count)
system.timingCpu1.thread_0.numMemRefs               0                       # Number of Memory References (Count)
system.workload.inst.arm                            0                       # number of arm instructions executed (Count)
system.workload.inst.quiesce                        0                       # number of quiesce instructions executed (Count)

---------- End Simulation Statistics   ----------
