
---------- Begin Simulation Statistics ----------
simSeconds                                   0.001000                       # Number of seconds simulated (Second)
simTicks                                   1000469000                       # Number of ticks simulated (Tick)
finalTick                                  1000469000                       # Number of ticks from beginning of simulation (restored from checkpoints and never reset) (Tick)
simFreq                                  1000000000000                       # The number of ticks per simulated second ((Tick/Second))
hostSeconds                                   1214.32                       # Real time elapsed on the host (Second)
hostTickRate                                   823894                       # The number of ticks simulated per host second (ticks/s) ((Tick/Second))
hostMemory                                   17490660                       # Number of bytes of host memory used (Byte)
system.clk_domain.clock                           250                       # Clock period in ticks (Tick)
system.clk_domain.voltage_domain.voltage            1                       # Voltage in Volts (Volt)
system.dcache_ctrl.avgPriority_generator::samples    110337.00                       # Average QoS priority value for accepted requests (Count)
system.dcache_ctrl.priorityMinLatency    0.000001894500                       # per QoS priority minimum request to response latency (Second)
system.dcache_ctrl.priorityMaxLatency    0.000013963500                       # per QoS priority maximum request to response latency (Second)
system.dcache_ctrl.numReadWriteTurnArounds            0                       # Number of turnarounds from READ to WRITE (Count)
system.dcache_ctrl.numWriteReadTurnArounds            0                       # Number of turnarounds from WRITE to READ (Count)
system.dcache_ctrl.numStayReadState                 0                       # Number of times bus staying in READ state (Count)
system.dcache_ctrl.numStayWriteState                0                       # Number of times bus staying in WRITE state (Count)
system.dcache_ctrl.readReqs                         0                       # Number of read requests accepted (Count)
system.dcache_ctrl.writeReqs                        0                       # Number of write requests accepted (Count)
system.dcache_ctrl.readBursts                       0                       # Number of controller read bursts, including those serviced by the write queue (Count)
system.dcache_ctrl.writeBursts                      0                       # Number of controller write bursts, including those merged in the write queue (Count)
system.dcache_ctrl.servicedByWrQ                    0                       # Number of controller read bursts serviced by the write queue (Count)
system.dcache_ctrl.mergedWrBursts                   0                       # Number of controller write bursts merged with an existing one (Count)
system.dcache_ctrl.neitherReadNorWriteReqs            0                       # Number of requests that are neither read nor write (Count)
system.dcache_ctrl.avgRdQLen                     0.00                       # Average read queue length when enqueuing ((Count/Tick))
system.dcache_ctrl.avgWrQLen                     0.00                       # Average write queue length when enqueuing ((Count/Tick))
system.dcache_ctrl.numRdRetry                       0                       # Number of times read queue was full causing retry (Count)
system.dcache_ctrl.numWrRetry                       0                       # Number of times write queue was full causing retry (Count)
system.dcache_ctrl.readPktSize::0                   0                       # Read request sizes (log2) (Count)
system.dcache_ctrl.readPktSize::1                   0                       # Read request sizes (log2) (Count)
system.dcache_ctrl.readPktSize::2                   0                       # Read request sizes (log2) (Count)
system.dcache_ctrl.readPktSize::3                   0                       # Read request sizes (log2) (Count)
system.dcache_ctrl.readPktSize::4                   0                       # Read request sizes (log2) (Count)
system.dcache_ctrl.readPktSize::5                   0                       # Read request sizes (log2) (Count)
system.dcache_ctrl.readPktSize::6                   0                       # Read request sizes (log2) (Count)
system.dcache_ctrl.writePktSize::0                  0                       # Write request sizes (log2) (Count)
system.dcache_ctrl.writePktSize::1                  0                       # Write request sizes (log2) (Count)
system.dcache_ctrl.writePktSize::2                  0                       # Write request sizes (log2) (Count)
system.dcache_ctrl.writePktSize::3                  0                       # Write request sizes (log2) (Count)
system.dcache_ctrl.writePktSize::4                  0                       # Write request sizes (log2) (Count)
system.dcache_ctrl.writePktSize::5                  0                       # Write request sizes (log2) (Count)
system.dcache_ctrl.writePktSize::6                  0                       # Write request sizes (log2) (Count)
system.dcache_ctrl.rdQLenPdf::0                     0                       # What read queue length does an incoming req see (Count)
system.dcache_ctrl.rdQLenPdf::1                     0                       # What read queue length does an incoming req see (Count)
system.dcache_ctrl.rdQLenPdf::2                     0                       # What read queue length does an incoming req see (Count)
system.dcache_ctrl.rdQLenPdf::3                     0                       # What read queue length does an incoming req see (Count)
system.dcache_ctrl.rdQLenPdf::4                     0                       # What read queue length does an incoming req see (Count)
system.dcache_ctrl.rdQLenPdf::5                     0                       # What read queue length does an incoming req see (Count)
system.dcache_ctrl.rdQLenPdf::6                     0                       # What read queue length does an incoming req see (Count)
system.dcache_ctrl.rdQLenPdf::7                     0                       # What read queue length does an incoming req see (Count)
system.dcache_ctrl.rdQLenPdf::8                     0                       # What read queue length does an incoming req see (Count)
system.dcache_ctrl.rdQLenPdf::9                     0                       # What read queue length does an incoming req see (Count)
system.dcache_ctrl.rdQLenPdf::10                    0                       # What read queue length does an incoming req see (Count)
system.dcache_ctrl.rdQLenPdf::11                    0                       # What read queue length does an incoming req see (Count)
system.dcache_ctrl.rdQLenPdf::12                    0                       # What read queue length does an incoming req see (Count)
system.dcache_ctrl.rdQLenPdf::13                    0                       # What read queue length does an incoming req see (Count)
system.dcache_ctrl.rdQLenPdf::14                    0                       # What read queue length does an incoming req see (Count)
system.dcache_ctrl.rdQLenPdf::15                    0                       # What read queue length does an incoming req see (Count)
system.dcache_ctrl.rdQLenPdf::16                    0                       # What read queue length does an incoming req see (Count)
system.dcache_ctrl.rdQLenPdf::17                    0                       # What read queue length does an incoming req see (Count)
system.dcache_ctrl.rdQLenPdf::18                    0                       # What read queue length does an incoming req see (Count)
system.dcache_ctrl.rdQLenPdf::19                    0                       # What read queue length does an incoming req see (Count)
system.dcache_ctrl.rdQLenPdf::20                    0                       # What read queue length does an incoming req see (Count)
system.dcache_ctrl.rdQLenPdf::21                    0                       # What read queue length does an incoming req see (Count)
system.dcache_ctrl.rdQLenPdf::22                    0                       # What read queue length does an incoming req see (Count)
system.dcache_ctrl.rdQLenPdf::23                    0                       # What read queue length does an incoming req see (Count)
system.dcache_ctrl.rdQLenPdf::24                    0                       # What read queue length does an incoming req see (Count)
system.dcache_ctrl.rdQLenPdf::25                    0                       # What read queue length does an incoming req see (Count)
system.dcache_ctrl.rdQLenPdf::26                    0                       # What read queue length does an incoming req see (Count)
system.dcache_ctrl.rdQLenPdf::27                    0                       # What read queue length does an incoming req see (Count)
system.dcache_ctrl.rdQLenPdf::28                    0                       # What read queue length does an incoming req see (Count)
system.dcache_ctrl.rdQLenPdf::29                    0                       # What read queue length does an incoming req see (Count)
system.dcache_ctrl.rdQLenPdf::30                    0                       # What read queue length does an incoming req see (Count)
system.dcache_ctrl.rdQLenPdf::31                    0                       # What read queue length does an incoming req see (Count)
system.dcache_ctrl.rdQLenPdf::32                    0                       # What read queue length does an incoming req see (Count)
system.dcache_ctrl.rdQLenPdf::33                    0                       # What read queue length does an incoming req see (Count)
system.dcache_ctrl.rdQLenPdf::34                    0                       # What read queue length does an incoming req see (Count)
system.dcache_ctrl.rdQLenPdf::35                    0                       # What read queue length does an incoming req see (Count)
system.dcache_ctrl.rdQLenPdf::36                    0                       # What read queue length does an incoming req see (Count)
system.dcache_ctrl.rdQLenPdf::37                    0                       # What read queue length does an incoming req see (Count)
system.dcache_ctrl.rdQLenPdf::38                    0                       # What read queue length does an incoming req see (Count)
system.dcache_ctrl.rdQLenPdf::39                    0                       # What read queue length does an incoming req see (Count)
system.dcache_ctrl.rdQLenPdf::40                    0                       # What read queue length does an incoming req see (Count)
system.dcache_ctrl.rdQLenPdf::41                    0                       # What read queue length does an incoming req see (Count)
system.dcache_ctrl.rdQLenPdf::42                    0                       # What read queue length does an incoming req see (Count)
system.dcache_ctrl.rdQLenPdf::43                    0                       # What read queue length does an incoming req see (Count)
system.dcache_ctrl.rdQLenPdf::44                    0                       # What read queue length does an incoming req see (Count)
system.dcache_ctrl.rdQLenPdf::45                    0                       # What read queue length does an incoming req see (Count)
system.dcache_ctrl.rdQLenPdf::46                    0                       # What read queue length does an incoming req see (Count)
system.dcache_ctrl.rdQLenPdf::47                    0                       # What read queue length does an incoming req see (Count)
system.dcache_ctrl.rdQLenPdf::48                    0                       # What read queue length does an incoming req see (Count)
system.dcache_ctrl.rdQLenPdf::49                    0                       # What read queue length does an incoming req see (Count)
system.dcache_ctrl.rdQLenPdf::50                    0                       # What read queue length does an incoming req see (Count)
system.dcache_ctrl.rdQLenPdf::51                    0                       # What read queue length does an incoming req see (Count)
system.dcache_ctrl.rdQLenPdf::52                    0                       # What read queue length does an incoming req see (Count)
system.dcache_ctrl.rdQLenPdf::53                    0                       # What read queue length does an incoming req see (Count)
system.dcache_ctrl.rdQLenPdf::54                    0                       # What read queue length does an incoming req see (Count)
system.dcache_ctrl.rdQLenPdf::55                    0                       # What read queue length does an incoming req see (Count)
system.dcache_ctrl.rdQLenPdf::56                    0                       # What read queue length does an incoming req see (Count)
system.dcache_ctrl.rdQLenPdf::57                    0                       # What read queue length does an incoming req see (Count)
system.dcache_ctrl.rdQLenPdf::58                    0                       # What read queue length does an incoming req see (Count)
system.dcache_ctrl.rdQLenPdf::59                    0                       # What read queue length does an incoming req see (Count)
system.dcache_ctrl.rdQLenPdf::60                    0                       # What read queue length does an incoming req see (Count)
system.dcache_ctrl.rdQLenPdf::61                    0                       # What read queue length does an incoming req see (Count)
system.dcache_ctrl.rdQLenPdf::62                    0                       # What read queue length does an incoming req see (Count)
system.dcache_ctrl.rdQLenPdf::63                    0                       # What read queue length does an incoming req see (Count)
system.dcache_ctrl.wrQLenPdf::0                     0                       # What write queue length does an incoming req see (Count)
system.dcache_ctrl.wrQLenPdf::1                     0                       # What write queue length does an incoming req see (Count)
system.dcache_ctrl.wrQLenPdf::2                     0                       # What write queue length does an incoming req see (Count)
system.dcache_ctrl.wrQLenPdf::3                     0                       # What write queue length does an incoming req see (Count)
system.dcache_ctrl.wrQLenPdf::4                     0                       # What write queue length does an incoming req see (Count)
system.dcache_ctrl.wrQLenPdf::5                     0                       # What write queue length does an incoming req see (Count)
system.dcache_ctrl.wrQLenPdf::6                     0                       # What write queue length does an incoming req see (Count)
system.dcache_ctrl.wrQLenPdf::7                     0                       # What write queue length does an incoming req see (Count)
system.dcache_ctrl.wrQLenPdf::8                     0                       # What write queue length does an incoming req see (Count)
system.dcache_ctrl.wrQLenPdf::9                     0                       # What write queue length does an incoming req see (Count)
system.dcache_ctrl.wrQLenPdf::10                    0                       # What write queue length does an incoming req see (Count)
system.dcache_ctrl.wrQLenPdf::11                    0                       # What write queue length does an incoming req see (Count)
system.dcache_ctrl.wrQLenPdf::12                    0                       # What write queue length does an incoming req see (Count)
system.dcache_ctrl.wrQLenPdf::13                    0                       # What write queue length does an incoming req see (Count)
system.dcache_ctrl.wrQLenPdf::14                    0                       # What write queue length does an incoming req see (Count)
system.dcache_ctrl.wrQLenPdf::15                    0                       # What write queue length does an incoming req see (Count)
system.dcache_ctrl.wrQLenPdf::16                    0                       # What write queue length does an incoming req see (Count)
system.dcache_ctrl.wrQLenPdf::17                    0                       # What write queue length does an incoming req see (Count)
system.dcache_ctrl.wrQLenPdf::18                    0                       # What write queue length does an incoming req see (Count)
system.dcache_ctrl.wrQLenPdf::19                    0                       # What write queue length does an incoming req see (Count)
system.dcache_ctrl.wrQLenPdf::20                    0                       # What write queue length does an incoming req see (Count)
system.dcache_ctrl.wrQLenPdf::21                    0                       # What write queue length does an incoming req see (Count)
system.dcache_ctrl.wrQLenPdf::22                    0                       # What write queue length does an incoming req see (Count)
system.dcache_ctrl.wrQLenPdf::23                    0                       # What write queue length does an incoming req see (Count)
system.dcache_ctrl.wrQLenPdf::24                    0                       # What write queue length does an incoming req see (Count)
system.dcache_ctrl.wrQLenPdf::25                    0                       # What write queue length does an incoming req see (Count)
system.dcache_ctrl.wrQLenPdf::26                    0                       # What write queue length does an incoming req see (Count)
system.dcache_ctrl.wrQLenPdf::27                    0                       # What write queue length does an incoming req see (Count)
system.dcache_ctrl.wrQLenPdf::28                    0                       # What write queue length does an incoming req see (Count)
system.dcache_ctrl.wrQLenPdf::29                    0                       # What write queue length does an incoming req see (Count)
system.dcache_ctrl.wrQLenPdf::30                    0                       # What write queue length does an incoming req see (Count)
system.dcache_ctrl.wrQLenPdf::31                    0                       # What write queue length does an incoming req see (Count)
system.dcache_ctrl.wrQLenPdf::32                    0                       # What write queue length does an incoming req see (Count)
system.dcache_ctrl.wrQLenPdf::33                    0                       # What write queue length does an incoming req see (Count)
system.dcache_ctrl.wrQLenPdf::34                    0                       # What write queue length does an incoming req see (Count)
system.dcache_ctrl.wrQLenPdf::35                    0                       # What write queue length does an incoming req see (Count)
system.dcache_ctrl.wrQLenPdf::36                    0                       # What write queue length does an incoming req see (Count)
system.dcache_ctrl.wrQLenPdf::37                    0                       # What write queue length does an incoming req see (Count)
system.dcache_ctrl.wrQLenPdf::38                    0                       # What write queue length does an incoming req see (Count)
system.dcache_ctrl.wrQLenPdf::39                    0                       # What write queue length does an incoming req see (Count)
system.dcache_ctrl.wrQLenPdf::40                    0                       # What write queue length does an incoming req see (Count)
system.dcache_ctrl.wrQLenPdf::41                    0                       # What write queue length does an incoming req see (Count)
system.dcache_ctrl.wrQLenPdf::42                    0                       # What write queue length does an incoming req see (Count)
system.dcache_ctrl.wrQLenPdf::43                    0                       # What write queue length does an incoming req see (Count)
system.dcache_ctrl.wrQLenPdf::44                    0                       # What write queue length does an incoming req see (Count)
system.dcache_ctrl.wrQLenPdf::45                    0                       # What write queue length does an incoming req see (Count)
system.dcache_ctrl.wrQLenPdf::46                    0                       # What write queue length does an incoming req see (Count)
system.dcache_ctrl.wrQLenPdf::47                    0                       # What write queue length does an incoming req see (Count)
system.dcache_ctrl.wrQLenPdf::48                    0                       # What write queue length does an incoming req see (Count)
system.dcache_ctrl.wrQLenPdf::49                    0                       # What write queue length does an incoming req see (Count)
system.dcache_ctrl.wrQLenPdf::50                    0                       # What write queue length does an incoming req see (Count)
system.dcache_ctrl.wrQLenPdf::51                    0                       # What write queue length does an incoming req see (Count)
system.dcache_ctrl.wrQLenPdf::52                    0                       # What write queue length does an incoming req see (Count)
system.dcache_ctrl.wrQLenPdf::53                    0                       # What write queue length does an incoming req see (Count)
system.dcache_ctrl.wrQLenPdf::54                    0                       # What write queue length does an incoming req see (Count)
system.dcache_ctrl.wrQLenPdf::55                    0                       # What write queue length does an incoming req see (Count)
system.dcache_ctrl.wrQLenPdf::56                    0                       # What write queue length does an incoming req see (Count)
system.dcache_ctrl.wrQLenPdf::57                    0                       # What write queue length does an incoming req see (Count)
system.dcache_ctrl.wrQLenPdf::58                    0                       # What write queue length does an incoming req see (Count)
system.dcache_ctrl.wrQLenPdf::59                    0                       # What write queue length does an incoming req see (Count)
system.dcache_ctrl.wrQLenPdf::60                    0                       # What write queue length does an incoming req see (Count)
system.dcache_ctrl.wrQLenPdf::61                    0                       # What write queue length does an incoming req see (Count)
system.dcache_ctrl.wrQLenPdf::62                    0                       # What write queue length does an incoming req see (Count)
system.dcache_ctrl.wrQLenPdf::63                    0                       # What write queue length does an incoming req see (Count)
system.dcache_ctrl.bytesReadWrQ                     0                       # Total number of bytes read from write queue (Byte)
system.dcache_ctrl.bytesReadSys                     0                       # Total read bytes from the system interface side (Byte)
system.dcache_ctrl.bytesWrittenSys                  0                       # Total written bytes from the system interface side (Byte)
system.dcache_ctrl.avgRdBWSys              0.00000000                       # Average system read bandwidth in Byte/s ((Byte/Second))
system.dcache_ctrl.avgWrBWSys              0.00000000                       # Average system write bandwidth in Byte/s ((Byte/Second))
system.dcache_ctrl.totGap                           0                       # Total gap between requests (Tick)
system.dcache_ctrl.avgGap                         nan                       # Average gap between requests ((Tick/Count))
system.dcache_ctrl.requestorReadBytes::generator      7050432                       # Per-requestor bytes read from memory (Byte)
system.dcache_ctrl.requestorWriteBytes::generator      7028800                       # Per-requestor bytes write to memory (Byte)
system.dcache_ctrl.requestorReadRate::generator 7047126897.485079765320                       # Per-requestor bytes read from memory rate ((Byte/Second))
system.dcache_ctrl.requestorWriteRate::generator 7025505038.137114524841                       # Per-requestor bytes write to memory rate ((Byte/Second))
system.dcache_ctrl.requestorReadTotalLat::generator 250877265750                       # Per-requestor read total memory access latency (Tick)
system.dcache_ctrl.requestorWriteTotalLat::generator 514807768750                       # Per-requestor write total memory access latency (Tick)
system.dcache_ctrl.requestorReadAvgLat::generator          inf                       # Per-requestor read average memory access latency ((Tick/Count))
system.dcache_ctrl.requestorWriteAvgLat::generator          inf                       # Per-requestor write average memory access latency ((Tick/Count))
system.dcache_ctrl.readReqs                    110337                       # Number of read requests accepted (Count)
system.dcache_ctrl.writeReqs                        0                       # Number of write requests accepted (Count)
system.dcache_ctrl.readBursts                  110337                       # Number of controller read bursts, including those serviced by the write queue (Count)
system.dcache_ctrl.writeBursts                      0                       # Number of controller write bursts, including those merged in the write queue (Count)
system.dcache_ctrl.servicedByWrQ                    0                       # Number of controller read bursts serviced by the write queue (Count)
system.dcache_ctrl.mergedWrBursts                   0                       # Number of controller write bursts merged with an existing one (Count)
system.dcache_ctrl.neitherReadNorWriteReqs            0                       # Number of requests that are neither read nor write (Count)
system.dcache_ctrl.avgRdQLen                     0.00                       # Average read queue length when enqueuing ((Count/Tick))
system.dcache_ctrl.avgWrQLen                     0.00                       # Average write queue length when enqueuing ((Count/Tick))
system.dcache_ctrl.numRdRetry                  108649                       # Number of times read queue was full causing retry (Count)
system.dcache_ctrl.numWrRetry                       0                       # Number of times write queue was full causing retry (Count)
system.dcache_ctrl.readPktSize::0                   0                       # Read request sizes (log2) (Count)
system.dcache_ctrl.readPktSize::1                   0                       # Read request sizes (log2) (Count)
system.dcache_ctrl.readPktSize::2                   0                       # Read request sizes (log2) (Count)
system.dcache_ctrl.readPktSize::3                   0                       # Read request sizes (log2) (Count)
system.dcache_ctrl.readPktSize::4                   0                       # Read request sizes (log2) (Count)
system.dcache_ctrl.readPktSize::5              110337                       # Read request sizes (log2) (Count)
system.dcache_ctrl.readPktSize::6                   0                       # Read request sizes (log2) (Count)
system.dcache_ctrl.writePktSize::0                  0                       # Write request sizes (log2) (Count)
system.dcache_ctrl.writePktSize::1                  0                       # Write request sizes (log2) (Count)
system.dcache_ctrl.writePktSize::2                  0                       # Write request sizes (log2) (Count)
system.dcache_ctrl.writePktSize::3                  0                       # Write request sizes (log2) (Count)
system.dcache_ctrl.writePktSize::4                  0                       # Write request sizes (log2) (Count)
system.dcache_ctrl.writePktSize::5                  0                       # Write request sizes (log2) (Count)
system.dcache_ctrl.writePktSize::6                  0                       # Write request sizes (log2) (Count)
system.dcache_ctrl.rdQLenPdf::0                     0                       # What read queue length does an incoming req see (Count)
system.dcache_ctrl.rdQLenPdf::1                     0                       # What read queue length does an incoming req see (Count)
system.dcache_ctrl.rdQLenPdf::2                     0                       # What read queue length does an incoming req see (Count)
system.dcache_ctrl.rdQLenPdf::3                     0                       # What read queue length does an incoming req see (Count)
system.dcache_ctrl.rdQLenPdf::4                     0                       # What read queue length does an incoming req see (Count)
system.dcache_ctrl.rdQLenPdf::5                     0                       # What read queue length does an incoming req see (Count)
system.dcache_ctrl.rdQLenPdf::6                     0                       # What read queue length does an incoming req see (Count)
system.dcache_ctrl.rdQLenPdf::7                     0                       # What read queue length does an incoming req see (Count)
system.dcache_ctrl.rdQLenPdf::8                     0                       # What read queue length does an incoming req see (Count)
system.dcache_ctrl.rdQLenPdf::9                     0                       # What read queue length does an incoming req see (Count)
system.dcache_ctrl.rdQLenPdf::10                    0                       # What read queue length does an incoming req see (Count)
system.dcache_ctrl.rdQLenPdf::11                    0                       # What read queue length does an incoming req see (Count)
system.dcache_ctrl.rdQLenPdf::12                    0                       # What read queue length does an incoming req see (Count)
system.dcache_ctrl.rdQLenPdf::13                    0                       # What read queue length does an incoming req see (Count)
system.dcache_ctrl.rdQLenPdf::14                    0                       # What read queue length does an incoming req see (Count)
system.dcache_ctrl.rdQLenPdf::15                    0                       # What read queue length does an incoming req see (Count)
system.dcache_ctrl.rdQLenPdf::16                    0                       # What read queue length does an incoming req see (Count)
system.dcache_ctrl.rdQLenPdf::17                    0                       # What read queue length does an incoming req see (Count)
system.dcache_ctrl.rdQLenPdf::18                    0                       # What read queue length does an incoming req see (Count)
system.dcache_ctrl.rdQLenPdf::19                    0                       # What read queue length does an incoming req see (Count)
system.dcache_ctrl.rdQLenPdf::20                    0                       # What read queue length does an incoming req see (Count)
system.dcache_ctrl.rdQLenPdf::21                    0                       # What read queue length does an incoming req see (Count)
system.dcache_ctrl.rdQLenPdf::22                    0                       # What read queue length does an incoming req see (Count)
system.dcache_ctrl.rdQLenPdf::23                    0                       # What read queue length does an incoming req see (Count)
system.dcache_ctrl.rdQLenPdf::24                    0                       # What read queue length does an incoming req see (Count)
system.dcache_ctrl.rdQLenPdf::25                    0                       # What read queue length does an incoming req see (Count)
system.dcache_ctrl.rdQLenPdf::26                    0                       # What read queue length does an incoming req see (Count)
system.dcache_ctrl.rdQLenPdf::27                    0                       # What read queue length does an incoming req see (Count)
system.dcache_ctrl.rdQLenPdf::28                    0                       # What read queue length does an incoming req see (Count)
system.dcache_ctrl.rdQLenPdf::29                    0                       # What read queue length does an incoming req see (Count)
system.dcache_ctrl.rdQLenPdf::30                    0                       # What read queue length does an incoming req see (Count)
system.dcache_ctrl.rdQLenPdf::31                    0                       # What read queue length does an incoming req see (Count)
system.dcache_ctrl.rdQLenPdf::32                    0                       # What read queue length does an incoming req see (Count)
system.dcache_ctrl.rdQLenPdf::33                    0                       # What read queue length does an incoming req see (Count)
system.dcache_ctrl.rdQLenPdf::34                    0                       # What read queue length does an incoming req see (Count)
system.dcache_ctrl.rdQLenPdf::35                    0                       # What read queue length does an incoming req see (Count)
system.dcache_ctrl.rdQLenPdf::36                    0                       # What read queue length does an incoming req see (Count)
system.dcache_ctrl.rdQLenPdf::37                    0                       # What read queue length does an incoming req see (Count)
system.dcache_ctrl.rdQLenPdf::38                    0                       # What read queue length does an incoming req see (Count)
system.dcache_ctrl.rdQLenPdf::39                    0                       # What read queue length does an incoming req see (Count)
system.dcache_ctrl.rdQLenPdf::40                    0                       # What read queue length does an incoming req see (Count)
system.dcache_ctrl.rdQLenPdf::41                    0                       # What read queue length does an incoming req see (Count)
system.dcache_ctrl.rdQLenPdf::42                    0                       # What read queue length does an incoming req see (Count)
system.dcache_ctrl.rdQLenPdf::43                    0                       # What read queue length does an incoming req see (Count)
system.dcache_ctrl.rdQLenPdf::44                    0                       # What read queue length does an incoming req see (Count)
system.dcache_ctrl.rdQLenPdf::45                    0                       # What read queue length does an incoming req see (Count)
system.dcache_ctrl.rdQLenPdf::46                    0                       # What read queue length does an incoming req see (Count)
system.dcache_ctrl.rdQLenPdf::47                    0                       # What read queue length does an incoming req see (Count)
system.dcache_ctrl.rdQLenPdf::48                    0                       # What read queue length does an incoming req see (Count)
system.dcache_ctrl.rdQLenPdf::49                    0                       # What read queue length does an incoming req see (Count)
system.dcache_ctrl.rdQLenPdf::50                    0                       # What read queue length does an incoming req see (Count)
system.dcache_ctrl.rdQLenPdf::51                    0                       # What read queue length does an incoming req see (Count)
system.dcache_ctrl.rdQLenPdf::52                    0                       # What read queue length does an incoming req see (Count)
system.dcache_ctrl.rdQLenPdf::53                    0                       # What read queue length does an incoming req see (Count)
system.dcache_ctrl.rdQLenPdf::54                    0                       # What read queue length does an incoming req see (Count)
system.dcache_ctrl.rdQLenPdf::55                    0                       # What read queue length does an incoming req see (Count)
system.dcache_ctrl.rdQLenPdf::56                    0                       # What read queue length does an incoming req see (Count)
system.dcache_ctrl.rdQLenPdf::57                    0                       # What read queue length does an incoming req see (Count)
system.dcache_ctrl.rdQLenPdf::58                    0                       # What read queue length does an incoming req see (Count)
system.dcache_ctrl.rdQLenPdf::59                    0                       # What read queue length does an incoming req see (Count)
system.dcache_ctrl.rdQLenPdf::60                    0                       # What read queue length does an incoming req see (Count)
system.dcache_ctrl.rdQLenPdf::61                    0                       # What read queue length does an incoming req see (Count)
system.dcache_ctrl.rdQLenPdf::62                    0                       # What read queue length does an incoming req see (Count)
system.dcache_ctrl.rdQLenPdf::63                    0                       # What read queue length does an incoming req see (Count)
system.dcache_ctrl.wrQLenPdf::0                     0                       # What write queue length does an incoming req see (Count)
system.dcache_ctrl.wrQLenPdf::1                     0                       # What write queue length does an incoming req see (Count)
system.dcache_ctrl.wrQLenPdf::2                     0                       # What write queue length does an incoming req see (Count)
system.dcache_ctrl.wrQLenPdf::3                     0                       # What write queue length does an incoming req see (Count)
system.dcache_ctrl.wrQLenPdf::4                     0                       # What write queue length does an incoming req see (Count)
system.dcache_ctrl.wrQLenPdf::5                     0                       # What write queue length does an incoming req see (Count)
system.dcache_ctrl.wrQLenPdf::6                     0                       # What write queue length does an incoming req see (Count)
system.dcache_ctrl.wrQLenPdf::7                     0                       # What write queue length does an incoming req see (Count)
system.dcache_ctrl.wrQLenPdf::8                     0                       # What write queue length does an incoming req see (Count)
system.dcache_ctrl.wrQLenPdf::9                     0                       # What write queue length does an incoming req see (Count)
system.dcache_ctrl.wrQLenPdf::10                    0                       # What write queue length does an incoming req see (Count)
system.dcache_ctrl.wrQLenPdf::11                    0                       # What write queue length does an incoming req see (Count)
system.dcache_ctrl.wrQLenPdf::12                    0                       # What write queue length does an incoming req see (Count)
system.dcache_ctrl.wrQLenPdf::13                    0                       # What write queue length does an incoming req see (Count)
system.dcache_ctrl.wrQLenPdf::14                    0                       # What write queue length does an incoming req see (Count)
system.dcache_ctrl.wrQLenPdf::15                    0                       # What write queue length does an incoming req see (Count)
system.dcache_ctrl.wrQLenPdf::16                    0                       # What write queue length does an incoming req see (Count)
system.dcache_ctrl.wrQLenPdf::17                    0                       # What write queue length does an incoming req see (Count)
system.dcache_ctrl.wrQLenPdf::18                    0                       # What write queue length does an incoming req see (Count)
system.dcache_ctrl.wrQLenPdf::19                    0                       # What write queue length does an incoming req see (Count)
system.dcache_ctrl.wrQLenPdf::20                    0                       # What write queue length does an incoming req see (Count)
system.dcache_ctrl.wrQLenPdf::21                    0                       # What write queue length does an incoming req see (Count)
system.dcache_ctrl.wrQLenPdf::22                    0                       # What write queue length does an incoming req see (Count)
system.dcache_ctrl.wrQLenPdf::23                    0                       # What write queue length does an incoming req see (Count)
system.dcache_ctrl.wrQLenPdf::24                    0                       # What write queue length does an incoming req see (Count)
system.dcache_ctrl.wrQLenPdf::25                    0                       # What write queue length does an incoming req see (Count)
system.dcache_ctrl.wrQLenPdf::26                    0                       # What write queue length does an incoming req see (Count)
system.dcache_ctrl.wrQLenPdf::27                    0                       # What write queue length does an incoming req see (Count)
system.dcache_ctrl.wrQLenPdf::28                    0                       # What write queue length does an incoming req see (Count)
system.dcache_ctrl.wrQLenPdf::29                    0                       # What write queue length does an incoming req see (Count)
system.dcache_ctrl.wrQLenPdf::30                    0                       # What write queue length does an incoming req see (Count)
system.dcache_ctrl.wrQLenPdf::31                    0                       # What write queue length does an incoming req see (Count)
system.dcache_ctrl.wrQLenPdf::32                    0                       # What write queue length does an incoming req see (Count)
system.dcache_ctrl.wrQLenPdf::33                    0                       # What write queue length does an incoming req see (Count)
system.dcache_ctrl.wrQLenPdf::34                    0                       # What write queue length does an incoming req see (Count)
system.dcache_ctrl.wrQLenPdf::35                    0                       # What write queue length does an incoming req see (Count)
system.dcache_ctrl.wrQLenPdf::36                    0                       # What write queue length does an incoming req see (Count)
system.dcache_ctrl.wrQLenPdf::37                    0                       # What write queue length does an incoming req see (Count)
system.dcache_ctrl.wrQLenPdf::38                    0                       # What write queue length does an incoming req see (Count)
system.dcache_ctrl.wrQLenPdf::39                    0                       # What write queue length does an incoming req see (Count)
system.dcache_ctrl.wrQLenPdf::40                    0                       # What write queue length does an incoming req see (Count)
system.dcache_ctrl.wrQLenPdf::41                    0                       # What write queue length does an incoming req see (Count)
system.dcache_ctrl.wrQLenPdf::42                    0                       # What write queue length does an incoming req see (Count)
system.dcache_ctrl.wrQLenPdf::43                    0                       # What write queue length does an incoming req see (Count)
system.dcache_ctrl.wrQLenPdf::44                    0                       # What write queue length does an incoming req see (Count)
system.dcache_ctrl.wrQLenPdf::45                    0                       # What write queue length does an incoming req see (Count)
system.dcache_ctrl.wrQLenPdf::46                    0                       # What write queue length does an incoming req see (Count)
system.dcache_ctrl.wrQLenPdf::47                    0                       # What write queue length does an incoming req see (Count)
system.dcache_ctrl.wrQLenPdf::48                    0                       # What write queue length does an incoming req see (Count)
system.dcache_ctrl.wrQLenPdf::49                    0                       # What write queue length does an incoming req see (Count)
system.dcache_ctrl.wrQLenPdf::50                    0                       # What write queue length does an incoming req see (Count)
system.dcache_ctrl.wrQLenPdf::51                    0                       # What write queue length does an incoming req see (Count)
system.dcache_ctrl.wrQLenPdf::52                    0                       # What write queue length does an incoming req see (Count)
system.dcache_ctrl.wrQLenPdf::53                    0                       # What write queue length does an incoming req see (Count)
system.dcache_ctrl.wrQLenPdf::54                    0                       # What write queue length does an incoming req see (Count)
system.dcache_ctrl.wrQLenPdf::55                    0                       # What write queue length does an incoming req see (Count)
system.dcache_ctrl.wrQLenPdf::56                    0                       # What write queue length does an incoming req see (Count)
system.dcache_ctrl.wrQLenPdf::57                    0                       # What write queue length does an incoming req see (Count)
system.dcache_ctrl.wrQLenPdf::58                    0                       # What write queue length does an incoming req see (Count)
system.dcache_ctrl.wrQLenPdf::59                    0                       # What write queue length does an incoming req see (Count)
system.dcache_ctrl.wrQLenPdf::60                    0                       # What write queue length does an incoming req see (Count)
system.dcache_ctrl.wrQLenPdf::61                    0                       # What write queue length does an incoming req see (Count)
system.dcache_ctrl.wrQLenPdf::62                    0                       # What write queue length does an incoming req see (Count)
system.dcache_ctrl.wrQLenPdf::63                    0                       # What write queue length does an incoming req see (Count)
system.dcache_ctrl.bytesReadWrQ                     0                       # Total number of bytes read from write queue (Byte)
system.dcache_ctrl.bytesReadSys                     0                       # Total read bytes from the system interface side (Byte)
system.dcache_ctrl.bytesWrittenSys                  0                       # Total written bytes from the system interface side (Byte)
system.dcache_ctrl.avgRdBWSys              0.00000000                       # Average system read bandwidth in Byte/s ((Byte/Second))
system.dcache_ctrl.avgWrBWSys              0.00000000                       # Average system write bandwidth in Byte/s ((Byte/Second))
system.dcache_ctrl.totGap                  1000468000                       # Total gap between requests (Tick)
system.dcache_ctrl.avgGap                     9067.38                       # Average gap between requests ((Tick/Count))
system.dcache_ctrl.requestorReadAccesses::generator       110337                       # Per-requestor read serviced memory accesses (Count)
system.dcache_ctrl.requestorReadAvgLat::generator         0.00                       # Per-requestor read average memory access latency ((Tick/Count))
system.dcache_ctrl.numWrBacks                  110152                       # Total number of write backs from DRAM cache to main memory (Unspecified)
system.dcache_ctrl.totNumConf                       5                       # Total number of packets conflicted on DRAM cache (Unspecified)
system.dcache_ctrl.totNumConfBufFull                0                       # Total number of packets conflicted yet couldn't enter confBuffer (Unspecified)
system.dcache_ctrl.maxNumConf                       1                       # Maximum number of packets conflicted on DRAM cache (Unspecified)
system.dcache_ctrl.maxLocRdEvQ                    381                       # Maximum number of packets in locMemReadEvent concurrently (Unspecified)
system.dcache_ctrl.maxLocRdRespEvQ                 15                       # Maximum number of packets in locMemReadRespEvent concurrently (Unspecified)
system.dcache_ctrl.maxLocWrEvQ                    318                       # Maximum number of packets in locMemRWriteEvent concurrently (Unspecified)
system.dcache_ctrl.maxFarRdEvQ                    276                       # Maximum number of packets in farMemReadEvent concurrently (Unspecified)
system.dcache_ctrl.maxFarRdRespEvQ                  0                       # Maximum number of packets in farMemReadRespEvent concurrently (Unspecified)
system.dcache_ctrl.maxFarWrEvQ                    301                       # Maximum number of packets in farMemWriteEvent concurrently (Unspecified)
system.dcache_ctrl.rdToWrTurnAround               858                       # Maximum number of packets in farMemReadRespEvent concurrently (Unspecified)
system.dcache_ctrl.wrToRdTurnAround               857                       # Maximum number of packets in farMemWriteEvent concurrently (Unspecified)
system.dcache_ctrl.sentRdPort                  110146                       # Number of read packets successfully sent through the request port to the far memory. (Unspecified)
system.dcache_ctrl.failedRdPort                 93569                       # Number of read packets failed to be sent through the request port to the far memory. (Unspecified)
system.dcache_ctrl.sentWrPort                  110106                       # Number of write packets successfully sent through the request port to the far memory. (Unspecified)
system.dcache_ctrl.failedWrPort                127088                       # Number of write packets failed to be sent through the request port to the far memory. (Unspecified)
system.dcache_ctrl.totPktsServiceTime       514807627                       # Number of write packets failed to be sent through the request port to the far memory. (Unspecified)
system.dcache_ctrl.dram.readBursts             110163                       # Number of DRAM read bursts (Count)
system.dcache_ctrl.dram.writeBursts            109825                       # Number of DRAM write bursts (Count)
system.dcache_ctrl.dram.perBankRdBursts::0         6900                       # Per bank write bursts (Count)
system.dcache_ctrl.dram.perBankRdBursts::1         6903                       # Per bank write bursts (Count)
system.dcache_ctrl.dram.perBankRdBursts::2         6800                       # Per bank write bursts (Count)
system.dcache_ctrl.dram.perBankRdBursts::3         7086                       # Per bank write bursts (Count)
system.dcache_ctrl.dram.perBankRdBursts::4         6856                       # Per bank write bursts (Count)
system.dcache_ctrl.dram.perBankRdBursts::5         6972                       # Per bank write bursts (Count)
system.dcache_ctrl.dram.perBankRdBursts::6         6789                       # Per bank write bursts (Count)
system.dcache_ctrl.dram.perBankRdBursts::7         7004                       # Per bank write bursts (Count)
system.dcache_ctrl.dram.perBankRdBursts::8         6854                       # Per bank write bursts (Count)
system.dcache_ctrl.dram.perBankRdBursts::9         6896                       # Per bank write bursts (Count)
system.dcache_ctrl.dram.perBankRdBursts::10         6911                       # Per bank write bursts (Count)
system.dcache_ctrl.dram.perBankRdBursts::11         6818                       # Per bank write bursts (Count)
system.dcache_ctrl.dram.perBankRdBursts::12         6818                       # Per bank write bursts (Count)
system.dcache_ctrl.dram.perBankRdBursts::13         6848                       # Per bank write bursts (Count)
system.dcache_ctrl.dram.perBankRdBursts::14         6769                       # Per bank write bursts (Count)
system.dcache_ctrl.dram.perBankRdBursts::15         6939                       # Per bank write bursts (Count)
system.dcache_ctrl.dram.perBankWrBursts::0         6882                       # Per bank write bursts (Count)
system.dcache_ctrl.dram.perBankWrBursts::1         6884                       # Per bank write bursts (Count)
system.dcache_ctrl.dram.perBankWrBursts::2         6776                       # Per bank write bursts (Count)
system.dcache_ctrl.dram.perBankWrBursts::3         7061                       # Per bank write bursts (Count)
system.dcache_ctrl.dram.perBankWrBursts::4         6834                       # Per bank write bursts (Count)
system.dcache_ctrl.dram.perBankWrBursts::5         6954                       # Per bank write bursts (Count)
system.dcache_ctrl.dram.perBankWrBursts::6         6771                       # Per bank write bursts (Count)
system.dcache_ctrl.dram.perBankWrBursts::7         6988                       # Per bank write bursts (Count)
system.dcache_ctrl.dram.perBankWrBursts::8         6833                       # Per bank write bursts (Count)
system.dcache_ctrl.dram.perBankWrBursts::9         6871                       # Per bank write bursts (Count)
system.dcache_ctrl.dram.perBankWrBursts::10         6894                       # Per bank write bursts (Count)
system.dcache_ctrl.dram.perBankWrBursts::11         6797                       # Per bank write bursts (Count)
system.dcache_ctrl.dram.perBankWrBursts::12         6795                       # Per bank write bursts (Count)
system.dcache_ctrl.dram.perBankWrBursts::13         6831                       # Per bank write bursts (Count)
system.dcache_ctrl.dram.perBankWrBursts::14         6747                       # Per bank write bursts (Count)
system.dcache_ctrl.dram.perBankWrBursts::15         6907                       # Per bank write bursts (Count)
system.dcache_ctrl.dram.totQLat          248674005750                       # Total ticks spent queuing (Tick)
system.dcache_ctrl.dram.totBusLat           220326000                       # Total ticks spent in databus transfers (Tick)
system.dcache_ctrl.dram.totMemAccLat     250877265750                       # Total ticks spent from burst creation until serviced by the DRAM (Tick)
system.dcache_ctrl.dram.avgQLat            2257327.83                       # Average queueing delay per DRAM burst ((Tick/Count))
system.dcache_ctrl.dram.avgBusLat             2000.00                       # Average bus latency per DRAM burst ((Tick/Count))
system.dcache_ctrl.dram.avgMemAccLat       2277327.83                       # Average memory access latency per DRAM burst ((Tick/Count))
system.dcache_ctrl.dram.readRowHits                 0                       # Number of row buffer hits during reads (Count)
system.dcache_ctrl.dram.writeRowHits                0                       # Number of row buffer hits during writes (Count)
system.dcache_ctrl.dram.readRowHitRate           0.00                       # Row buffer hit rate for reads (Ratio)
system.dcache_ctrl.dram.writeRowHitRate          0.00                       # Row buffer hit rate for writes (Ratio)
system.dcache_ctrl.dram.bytesPerActivate::samples       219988                       # Bytes accessed per row activation (Byte)
system.dcache_ctrl.dram.bytesPerActivate::mean           32                       # Bytes accessed per row activation (Byte)
system.dcache_ctrl.dram.bytesPerActivate::gmean    32.000000                       # Bytes accessed per row activation (Byte)
system.dcache_ctrl.dram.bytesPerActivate::32-35       219988    100.00%    100.00% # Bytes accessed per row activation (Byte)
system.dcache_ctrl.dram.bytesPerActivate::total       219988                       # Bytes accessed per row activation (Byte)
system.dcache_ctrl.dram.bytesRead             3525216                       # Total bytes read (Byte)
system.dcache_ctrl.dram.bytesWritten          3514400                       # Total bytes written (Byte)
system.dcache_ctrl.dram.avgRdBW           3523.563449                       # Average DRAM read bandwidth in MiBytes/s ((Byte/Second))
system.dcache_ctrl.dram.avgWrBW           3512.752519                       # Average DRAM write bandwidth in MiBytes/s ((Byte/Second))
system.dcache_ctrl.dram.peakBW               16000.00                       # Theoretical peak bandwidth in MiByte/s ((Byte/Second))
system.dcache_ctrl.dram.busUtil                 43.98                       # Data bus utilization in percentage (Ratio)
system.dcache_ctrl.dram.busUtilRead             22.02                       # Data bus utilization in percentage for reads (Ratio)
system.dcache_ctrl.dram.busUtilWrite            21.95                       # Data bus utilization in percentage for writes (Ratio)
system.dcache_ctrl.dram.pageHitRate              0.00                       # Row buffer hit rate, read and write combined (Ratio)
system.dcache_ctrl.dram.power_state.pwrStateResidencyTicks::UNDEFINED   1000469000                       # Cumulative time (in ticks) in various power states (Tick)
system.dcache_ctrl.dram.rank0.actEnergy             0                       # Energy for activate commands per rank (pJ) (Joule)
system.dcache_ctrl.dram.rank0.preEnergy             0                       # Energy for precharge commands per rank (pJ) (Joule)
system.dcache_ctrl.dram.rank0.readEnergy            0                       # Energy for read commands per rank (pJ) (Joule)
system.dcache_ctrl.dram.rank0.writeEnergy            0                       # Energy for write commands per rank (pJ) (Joule)
system.dcache_ctrl.dram.rank0.refreshEnergy            0                       # Energy for refresh commands per rank (pJ) (Joule)
system.dcache_ctrl.dram.rank0.actBackEnergy            0                       # Energy for active background per rank (pJ) (Joule)
system.dcache_ctrl.dram.rank0.preBackEnergy            0                       # Energy for precharge background per rank (pJ) (Joule)
system.dcache_ctrl.dram.rank0.actPowerDownEnergy            0                       # Energy for active power-down per rank (pJ) (Joule)
system.dcache_ctrl.dram.rank0.prePowerDownEnergy            0                       # Energy for precharge power-down per rank (pJ) (Joule)
system.dcache_ctrl.dram.rank0.selfRefreshEnergy            0                       # Energy for self refresh per rank (pJ) (Joule)
system.dcache_ctrl.dram.rank0.totalEnergy            0                       # Total energy per rank (pJ) (Joule)
system.dcache_ctrl.dram.rank0.averagePower            0                       # Core power per rank (mW) (Watt)
system.dcache_ctrl.dram.rank0.totalIdleTime            0                       # Total Idle time Per DRAM Rank (Tick)
system.dcache_ctrl.dram.rank0.pwrStateTime::IDLE     42815000                       # Time in different power states (Tick)
system.dcache_ctrl.dram.rank0.pwrStateTime::REF     56540000                       # Time in different power states (Tick)
system.dcache_ctrl.dram.rank0.pwrStateTime::SREF            0                       # Time in different power states (Tick)
system.dcache_ctrl.dram.rank0.pwrStateTime::PRE_PDN            0                       # Time in different power states (Tick)
system.dcache_ctrl.dram.rank0.pwrStateTime::ACT    901114000                       # Time in different power states (Tick)
system.dcache_ctrl.dram.rank0.pwrStateTime::ACT_PDN            0                       # Time in different power states (Tick)
system.dcache_ctrl.far_memory.bytesRead::generator     14090368                       # Number of bytes read from this memory (Byte)
system.dcache_ctrl.far_memory.bytesRead::total     14090368                       # Number of bytes read from this memory (Byte)
system.dcache_ctrl.far_memory.bytesWritten::writebacks      7046784                       # Number of bytes written to this memory (Byte)
system.dcache_ctrl.far_memory.bytesWritten::total      7046784                       # Number of bytes written to this memory (Byte)
system.dcache_ctrl.far_memory.numReads::generator       220162                       # Number of read requests responded to by this memory (Count)
system.dcache_ctrl.far_memory.numReads::total       220162                       # Number of read requests responded to by this memory (Count)
system.dcache_ctrl.far_memory.numWrites::writebacks       110106                       # Number of write requests responded to by this memory (Count)
system.dcache_ctrl.far_memory.numWrites::total       110106                       # Number of write requests responded to by this memory (Count)
system.dcache_ctrl.far_memory.bwRead::generator  14083762715                       # Total read bandwidth from this memory ((Byte/Second))
system.dcache_ctrl.far_memory.bwRead::total  14083762715                       # Total read bandwidth from this memory ((Byte/Second))
system.dcache_ctrl.far_memory.bwWrite::writebacks   7043480608                       # Write bandwidth from this memory ((Byte/Second))
system.dcache_ctrl.far_memory.bwWrite::total   7043480608                       # Write bandwidth from this memory ((Byte/Second))
system.dcache_ctrl.far_memory.bwTotal::writebacks   7043480608                       # Total bandwidth to/from this memory ((Byte/Second))
system.dcache_ctrl.far_memory.bwTotal::generator  14083762715                       # Total bandwidth to/from this memory ((Byte/Second))
system.dcache_ctrl.far_memory.bwTotal::total  21127243323                       # Total bandwidth to/from this memory ((Byte/Second))
system.dcache_ctrl.far_memory.readBursts       109936                       # Number of DRAM read bursts (Count)
system.dcache_ctrl.far_memory.writeBursts       109993                       # Number of DRAM write bursts (Count)
system.dcache_ctrl.far_memory.perBankRdBursts::0         3462                       # Per bank write bursts (Count)
system.dcache_ctrl.far_memory.perBankRdBursts::1         3494                       # Per bank write bursts (Count)
system.dcache_ctrl.far_memory.perBankRdBursts::2         3552                       # Per bank write bursts (Count)
system.dcache_ctrl.far_memory.perBankRdBursts::3         3362                       # Per bank write bursts (Count)
system.dcache_ctrl.far_memory.perBankRdBursts::4         3508                       # Per bank write bursts (Count)
system.dcache_ctrl.far_memory.perBankRdBursts::5         3445                       # Per bank write bursts (Count)
system.dcache_ctrl.far_memory.perBankRdBursts::6         3428                       # Per bank write bursts (Count)
system.dcache_ctrl.far_memory.perBankRdBursts::7         3412                       # Per bank write bursts (Count)
system.dcache_ctrl.far_memory.perBankRdBursts::8         3346                       # Per bank write bursts (Count)
system.dcache_ctrl.far_memory.perBankRdBursts::9         3460                       # Per bank write bursts (Count)
system.dcache_ctrl.far_memory.perBankRdBursts::10         3466                       # Per bank write bursts (Count)
system.dcache_ctrl.far_memory.perBankRdBursts::11         3435                       # Per bank write bursts (Count)
system.dcache_ctrl.far_memory.perBankRdBursts::12         3527                       # Per bank write bursts (Count)
system.dcache_ctrl.far_memory.perBankRdBursts::13         3452                       # Per bank write bursts (Count)
system.dcache_ctrl.far_memory.perBankRdBursts::14         3385                       # Per bank write bursts (Count)
system.dcache_ctrl.far_memory.perBankRdBursts::15         3471                       # Per bank write bursts (Count)
system.dcache_ctrl.far_memory.perBankRdBursts::16         3514                       # Per bank write bursts (Count)
system.dcache_ctrl.far_memory.perBankRdBursts::17         3433                       # Per bank write bursts (Count)
system.dcache_ctrl.far_memory.perBankRdBursts::18         3409                       # Per bank write bursts (Count)
system.dcache_ctrl.far_memory.perBankRdBursts::19         3438                       # Per bank write bursts (Count)
system.dcache_ctrl.far_memory.perBankRdBursts::20         3469                       # Per bank write bursts (Count)
system.dcache_ctrl.far_memory.perBankRdBursts::21         3390                       # Per bank write bursts (Count)
system.dcache_ctrl.far_memory.perBankRdBursts::22         3430                       # Per bank write bursts (Count)
system.dcache_ctrl.far_memory.perBankRdBursts::23         3469                       # Per bank write bursts (Count)
system.dcache_ctrl.far_memory.perBankRdBursts::24         3459                       # Per bank write bursts (Count)
system.dcache_ctrl.far_memory.perBankRdBursts::25         3411                       # Per bank write bursts (Count)
system.dcache_ctrl.far_memory.perBankRdBursts::26         3402                       # Per bank write bursts (Count)
system.dcache_ctrl.far_memory.perBankRdBursts::27         3384                       # Per bank write bursts (Count)
system.dcache_ctrl.far_memory.perBankRdBursts::28         3401                       # Per bank write bursts (Count)
system.dcache_ctrl.far_memory.perBankRdBursts::29         3402                       # Per bank write bursts (Count)
system.dcache_ctrl.far_memory.perBankRdBursts::30         3436                       # Per bank write bursts (Count)
system.dcache_ctrl.far_memory.perBankRdBursts::31         3284                       # Per bank write bursts (Count)
system.dcache_ctrl.far_memory.perBankWrBursts::0         3466                       # Per bank write bursts (Count)
system.dcache_ctrl.far_memory.perBankWrBursts::1         3498                       # Per bank write bursts (Count)
system.dcache_ctrl.far_memory.perBankWrBursts::2         3550                       # Per bank write bursts (Count)
system.dcache_ctrl.far_memory.perBankWrBursts::3         3369                       # Per bank write bursts (Count)
system.dcache_ctrl.far_memory.perBankWrBursts::4         3518                       # Per bank write bursts (Count)
system.dcache_ctrl.far_memory.perBankWrBursts::5         3450                       # Per bank write bursts (Count)
system.dcache_ctrl.far_memory.perBankWrBursts::6         3430                       # Per bank write bursts (Count)
system.dcache_ctrl.far_memory.perBankWrBursts::7         3417                       # Per bank write bursts (Count)
system.dcache_ctrl.far_memory.perBankWrBursts::8         3347                       # Per bank write bursts (Count)
system.dcache_ctrl.far_memory.perBankWrBursts::9         3464                       # Per bank write bursts (Count)
system.dcache_ctrl.far_memory.perBankWrBursts::10         3474                       # Per bank write bursts (Count)
system.dcache_ctrl.far_memory.perBankWrBursts::11         3442                       # Per bank write bursts (Count)
system.dcache_ctrl.far_memory.perBankWrBursts::12         3535                       # Per bank write bursts (Count)
system.dcache_ctrl.far_memory.perBankWrBursts::13         3455                       # Per bank write bursts (Count)
system.dcache_ctrl.far_memory.perBankWrBursts::14         3388                       # Per bank write bursts (Count)
system.dcache_ctrl.far_memory.perBankWrBursts::15         3473                       # Per bank write bursts (Count)
system.dcache_ctrl.far_memory.perBankWrBursts::16         3513                       # Per bank write bursts (Count)
system.dcache_ctrl.far_memory.perBankWrBursts::17         3431                       # Per bank write bursts (Count)
system.dcache_ctrl.far_memory.perBankWrBursts::18         3407                       # Per bank write bursts (Count)
system.dcache_ctrl.far_memory.perBankWrBursts::19         3433                       # Per bank write bursts (Count)
system.dcache_ctrl.far_memory.perBankWrBursts::20         3466                       # Per bank write bursts (Count)
system.dcache_ctrl.far_memory.perBankWrBursts::21         3384                       # Per bank write bursts (Count)
system.dcache_ctrl.far_memory.perBankWrBursts::22         3428                       # Per bank write bursts (Count)
system.dcache_ctrl.far_memory.perBankWrBursts::23         3467                       # Per bank write bursts (Count)
system.dcache_ctrl.far_memory.perBankWrBursts::24         3462                       # Per bank write bursts (Count)
system.dcache_ctrl.far_memory.perBankWrBursts::25         3414                       # Per bank write bursts (Count)
system.dcache_ctrl.far_memory.perBankWrBursts::26         3406                       # Per bank write bursts (Count)
system.dcache_ctrl.far_memory.perBankWrBursts::27         3382                       # Per bank write bursts (Count)
system.dcache_ctrl.far_memory.perBankWrBursts::28         3402                       # Per bank write bursts (Count)
system.dcache_ctrl.far_memory.perBankWrBursts::29         3402                       # Per bank write bursts (Count)
system.dcache_ctrl.far_memory.perBankWrBursts::30         3435                       # Per bank write bursts (Count)
system.dcache_ctrl.far_memory.perBankWrBursts::31         3285                       # Per bank write bursts (Count)
system.dcache_ctrl.far_memory.totQLat     27247122608                       # Total ticks spent queuing (Tick)
system.dcache_ctrl.far_memory.totBusLat     366306752                       # Total ticks spent in databus transfers (Tick)
system.dcache_ctrl.far_memory.totMemAccLat  29170123120                       # Total ticks spent from burst creation until serviced by the DRAM (Tick)
system.dcache_ctrl.far_memory.avgQLat       247845.32                       # Average queueing delay per DRAM burst ((Tick/Count))
system.dcache_ctrl.far_memory.avgBusLat       3332.00                       # Average bus latency per DRAM burst ((Tick/Count))
system.dcache_ctrl.far_memory.avgMemAccLat    265337.32                       # Average memory access latency per DRAM burst ((Tick/Count))
system.dcache_ctrl.far_memory.readRowHits           47                       # Number of row buffer hits during reads (Count)
system.dcache_ctrl.far_memory.writeRowHits          158                       # Number of row buffer hits during writes (Count)
system.dcache_ctrl.far_memory.readRowHitRate         0.04                       # Row buffer hit rate for reads (Ratio)
system.dcache_ctrl.far_memory.writeRowHitRate         0.14                       # Row buffer hit rate for writes (Ratio)
system.dcache_ctrl.far_memory.bytesPerActivate::samples       219709                       # Bytes accessed per row activation (Byte)
system.dcache_ctrl.far_memory.bytesPerActivate::mean    64.059715                       # Bytes accessed per row activation (Byte)
system.dcache_ctrl.far_memory.bytesPerActivate::gmean    64.041405                       # Bytes accessed per row activation (Byte)
system.dcache_ctrl.far_memory.bytesPerActivate::stdev     1.954030                       # Bytes accessed per row activation (Byte)
system.dcache_ctrl.far_memory.bytesPerActivate::64-79       219504     99.91%     99.91% # Bytes accessed per row activation (Byte)
system.dcache_ctrl.far_memory.bytesPerActivate::128-143          205      0.09%    100.00% # Bytes accessed per row activation (Byte)
system.dcache_ctrl.far_memory.bytesPerActivate::total       219709                       # Bytes accessed per row activation (Byte)
system.dcache_ctrl.far_memory.bytesRead       7035904                       # Total bytes read (Byte)
system.dcache_ctrl.far_memory.bytesWritten      7039552                       # Total bytes written (Byte)
system.dcache_ctrl.far_memory.avgRdBW     7032.605708                       # Average DRAM read bandwidth in MiBytes/s ((Byte/Second))
system.dcache_ctrl.far_memory.avgWrBW     7036.251998                       # Average DRAM write bandwidth in MiBytes/s ((Byte/Second))
system.dcache_ctrl.far_memory.peakBW         19207.00                       # Theoretical peak bandwidth in MiByte/s ((Byte/Second))
system.dcache_ctrl.far_memory.busUtil           73.25                       # Data bus utilization in percentage (Ratio)
system.dcache_ctrl.far_memory.busUtilRead        36.61                       # Data bus utilization in percentage for reads (Ratio)
system.dcache_ctrl.far_memory.busUtilWrite        36.63                       # Data bus utilization in percentage for writes (Ratio)
system.dcache_ctrl.far_memory.pageHitRate         0.09                       # Row buffer hit rate, read and write combined (Ratio)
system.dcache_ctrl.far_memory.power_state.pwrStateResidencyTicks::UNDEFINED   1000469000                       # Cumulative time (in ticks) in various power states (Tick)
system.dcache_ctrl.far_memory.rank0.actEnergy 344279033.280000                       # Energy for activate commands per rank (pJ) (Joule)
system.dcache_ctrl.far_memory.rank0.preEnergy 457652365.800000                       # Energy for precharge commands per rank (pJ) (Joule)
system.dcache_ctrl.far_memory.rank0.readEnergy 232205512.627200                       # Energy for read commands per rank (pJ) (Joule)
system.dcache_ctrl.far_memory.rank0.writeEnergy 207743349.408000                       # Energy for write commands per rank (pJ) (Joule)
system.dcache_ctrl.far_memory.rank0.refreshEnergy 177328336.281601                       # Energy for refresh commands per rank (pJ) (Joule)
system.dcache_ctrl.far_memory.rank0.actBackEnergy 835218350.971200                       # Energy for active background per rank (pJ) (Joule)
system.dcache_ctrl.far_memory.rank0.preBackEnergy 11356895.424000                       # Energy for precharge background per rank (pJ) (Joule)
system.dcache_ctrl.far_memory.rank0.actPowerDownEnergy            0                       # Energy for active power-down per rank (pJ) (Joule)
system.dcache_ctrl.far_memory.rank0.prePowerDownEnergy            0                       # Energy for precharge power-down per rank (pJ) (Joule)
system.dcache_ctrl.far_memory.rank0.selfRefreshEnergy            0                       # Energy for self refresh per rank (pJ) (Joule)
system.dcache_ctrl.far_memory.rank0.totalEnergy 2265783843.792000                       # Total energy per rank (pJ) (Joule)
system.dcache_ctrl.far_memory.rank0.averagePower  2264.721689                       # Core power per rank (mW) (Watt)
system.dcache_ctrl.far_memory.rank0.totalIdleTime            0                       # Total Idle time Per DRAM Rank (Tick)
system.dcache_ctrl.far_memory.rank0.pwrStateTime::IDLE     13085014                       # Time in different power states (Tick)
system.dcache_ctrl.far_memory.rank0.pwrStateTime::REF     44800000                       # Time in different power states (Tick)
system.dcache_ctrl.far_memory.rank0.pwrStateTime::SREF            0                       # Time in different power states (Tick)
system.dcache_ctrl.far_memory.rank0.pwrStateTime::PRE_PDN            0                       # Time in different power states (Tick)
system.dcache_ctrl.far_memory.rank0.pwrStateTime::ACT    942583986                       # Time in different power states (Tick)
system.dcache_ctrl.far_memory.rank0.pwrStateTime::ACT_PDN            0                       # Time in different power states (Tick)
system.dcache_ctrl.far_memory.rank1.actEnergy 340973156.160000                       # Energy for activate commands per rank (pJ) (Joule)
system.dcache_ctrl.far_memory.rank1.preEnergy 453282122.596800                       # Energy for precharge commands per rank (pJ) (Joule)
system.dcache_ctrl.far_memory.rank1.readEnergy 230215924.780800                       # Energy for read commands per rank (pJ) (Joule)
system.dcache_ctrl.far_memory.rank1.writeEnergy 205638591.648000                       # Energy for write commands per rank (pJ) (Joule)
system.dcache_ctrl.far_memory.rank1.refreshEnergy 177328336.281601                       # Energy for refresh commands per rank (pJ) (Joule)
system.dcache_ctrl.far_memory.rank1.actBackEnergy 835289122.651200                       # Energy for active background per rank (pJ) (Joule)
system.dcache_ctrl.far_memory.rank1.preBackEnergy 11302517.184000                       # Energy for precharge background per rank (pJ) (Joule)
system.dcache_ctrl.far_memory.rank1.actPowerDownEnergy            0                       # Energy for active power-down per rank (pJ) (Joule)
system.dcache_ctrl.far_memory.rank1.prePowerDownEnergy            0                       # Energy for precharge power-down per rank (pJ) (Joule)
system.dcache_ctrl.far_memory.rank1.selfRefreshEnergy            0                       # Energy for self refresh per rank (pJ) (Joule)
system.dcache_ctrl.far_memory.rank1.totalEnergy 2254029771.302401                       # Total energy per rank (pJ) (Joule)
system.dcache_ctrl.far_memory.rank1.averagePower  2252.973127                       # Core power per rank (mW) (Watt)
system.dcache_ctrl.far_memory.rank1.totalIdleTime            0                       # Total Idle time Per DRAM Rank (Tick)
system.dcache_ctrl.far_memory.rank1.pwrStateTime::IDLE     12958650                       # Time in different power states (Tick)
system.dcache_ctrl.far_memory.rank1.pwrStateTime::REF     44800000                       # Time in different power states (Tick)
system.dcache_ctrl.far_memory.rank1.pwrStateTime::SREF            0                       # Time in different power states (Tick)
system.dcache_ctrl.far_memory.rank1.pwrStateTime::PRE_PDN            0                       # Time in different power states (Tick)
system.dcache_ctrl.far_memory.rank1.pwrStateTime::ACT    942710350                       # Time in different power states (Tick)
system.dcache_ctrl.far_memory.rank1.pwrStateTime::ACT_PDN            0                       # Time in different power states (Tick)
system.dcache_ctrl.power_state.pwrStateResidencyTicks::UNDEFINED   1000469000                       # Cumulative time (in ticks) in various power states (Tick)
system.farMem_ctrl.avgPriority_writebacks::samples    110106.00                       # Average QoS priority value for accepted requests (Count)
system.farMem_ctrl.avgPriority_generator::samples    109999.00                       # Average QoS priority value for accepted requests (Count)
system.farMem_ctrl.priorityMinLatency    0.000000031652                       # per QoS priority minimum request to response latency (Second)
system.farMem_ctrl.priorityMaxLatency    0.000012231166                       # per QoS priority maximum request to response latency (Second)
system.farMem_ctrl.numReadWriteTurnArounds         5978                       # Number of turnarounds from READ to WRITE (Count)
system.farMem_ctrl.numWriteReadTurnArounds         5978                       # Number of turnarounds from WRITE to READ (Count)
system.farMem_ctrl.numStayReadState            109207                       # Number of times bus staying in READ state (Count)
system.farMem_ctrl.numStayWriteState           105979                       # Number of times bus staying in WRITE state (Count)
system.farMem_ctrl.readReqs                    110146                       # Number of read requests accepted (Count)
system.farMem_ctrl.writeReqs                   110106                       # Number of write requests accepted (Count)
system.farMem_ctrl.readBursts                  110146                       # Number of controller read bursts, including those serviced by the write queue (Count)
system.farMem_ctrl.writeBursts                 110106                       # Number of controller write bursts, including those merged in the write queue (Count)
system.farMem_ctrl.servicedByWrQ                  147                       # Number of controller read bursts serviced by the write queue (Count)
system.farMem_ctrl.mergedWrBursts                   0                       # Number of controller write bursts merged with an existing one (Count)
system.farMem_ctrl.neitherReadNorWriteReqs            0                       # Number of requests that are neither read nor write (Count)
system.farMem_ctrl.avgRdQLen                    46.38                       # Average read queue length when enqueuing ((Count/Tick))
system.farMem_ctrl.avgWrQLen                   122.63                       # Average write queue length when enqueuing ((Count/Tick))
system.farMem_ctrl.numRdRetry                   17747                       # Number of times read queue was full causing retry (Count)
system.farMem_ctrl.numWrRetry                   38315                       # Number of times write queue was full causing retry (Count)
system.farMem_ctrl.readPktSize::0                   0                       # Read request sizes (log2) (Count)
system.farMem_ctrl.readPktSize::1                   0                       # Read request sizes (log2) (Count)
system.farMem_ctrl.readPktSize::2                   0                       # Read request sizes (log2) (Count)
system.farMem_ctrl.readPktSize::3                   0                       # Read request sizes (log2) (Count)
system.farMem_ctrl.readPktSize::4                   0                       # Read request sizes (log2) (Count)
system.farMem_ctrl.readPktSize::5                   0                       # Read request sizes (log2) (Count)
[...]
system.farMem_ctrl.rdPerTurnAround::40-43           20      0.33%     94.93% # Reads before turning the bus around for writes (Count)
system.farMem_ctrl.rdPerTurnAround::44-47           26      0.43%     95.37% # Reads before turning the bus around for writes (Count)
system.farMem_ctrl.rdPerTurnAround::48-51           22      0.37%     95.73% # Reads before turning the bus around for writes (Count)
system.farMem_ctrl.rdPerTurnAround::52-55           61      1.02%     96.75% # Reads before turning the bus around for writes (Count)
system.farMem_ctrl.rdPerTurnAround::56-59           92      1.54%     98.29% # Reads before turning the bus around for writes (Count)
system.farMem_ctrl.rdPerTurnAround::60-63            4      0.07%     98.36% # Reads before turning the bus around for writes (Count)
system.farMem_ctrl.rdPerTurnAround::64-67            5      0.08%     98.44% # Reads before turning the bus around for writes (Count)
system.farMem_ctrl.rdPerTurnAround::68-71            1      0.02%     98.46% # Reads before turning the bus around for writes (Count)
system.farMem_ctrl.rdPerTurnAround::72-75            5      0.08%     98.54% # Reads before turning the bus around for writes (Count)
system.farMem_ctrl.rdPerTurnAround::76-79            5      0.08%     98.63% # Reads before turning the bus around for writes (Count)
system.farMem_ctrl.rdPerTurnAround::80-83            2      0.03%     98.66% # Reads before turning the bus around for writes (Count)
system.farMem_ctrl.rdPerTurnAround::84-87            7      0.12%     98.78% # Reads before turning the bus around for writes (Count)
system.farMem_ctrl.rdPerTurnAround::88-91            8      0.13%     98.91% # Reads before turning the bus around for writes (Count)
system.farMem_ctrl.rdPerTurnAround::92-95           13      0.22%     99.13% # Reads before turning the bus around for writes (Count)
system.farMem_ctrl.rdPerTurnAround::96-99           11      0.18%     99.31% # Reads before turning the bus around for writes (Count)
system.farMem_ctrl.rdPerTurnAround::100-103            4      0.07%     99.38% # Reads before turning the bus around for writes (Count)
system.farMem_ctrl.rdPerTurnAround::104-107            4      0.07%     99.45% # Reads before turning the bus around for writes (Count)
system.farMem_ctrl.rdPerTurnAround::108-111            3      0.05%     99.50% # Reads before turning the bus around for writes (Count)
system.farMem_ctrl.rdPerTurnAround::112-115            1      0.02%     99.51% # Reads before turning the bus around for writes (Count)
system.farMem_ctrl.rdPerTurnAround::116-119            6      0.10%     99.62% # Reads before turning the bus around for writes (Count)
system.farMem_ctrl.rdPerTurnAround::120-123            2      0.03%     99.65% # Reads before turning the bus around for writes (Count)
system.farMem_ctrl.rdPerTurnAround::124-127            3      0.05%     99.70% # Reads before turning the bus around for writes (Count)
system.farMem_ctrl.rdPerTurnAround::128-131            3      0.05%     99.75% # Reads before turning the bus around for writes (Count)
system.farMem_ctrl.rdPerTurnAround::136-139            3      0.05%     99.80% # Reads before turning the bus around for writes (Count)
system.farMem_ctrl.rdPerTurnAround::140-143            1      0.02%     99.82% # Reads before turning the bus around for writes (Count)
system.farMem_ctrl.rdPerTurnAround::144-147            2      0.03%     99.85% # Reads before turning the bus around for writes (Count)
system.farMem_ctrl.rdPerTurnAround::148-151            4      0.07%     99.92% # Reads before turning the bus around for writes (Count)
system.farMem_ctrl.rdPerTurnAround::152-155            1      0.02%     99.93% # Reads before turning the bus around for writes (Count)
system.farMem_ctrl.rdPerTurnAround::156-159            2      0.03%     99.97% # Reads before turning the bus around for writes (Count)
system.farMem_ctrl.rdPerTurnAround::164-167            1      0.02%     99.98% # Reads before turning the bus around for writes (Count)
system.farMem_ctrl.rdPerTurnAround::168-171            1      0.02%    100.00% # Reads before turning the bus around for writes (Count)
system.farMem_ctrl.rdPerTurnAround::total         5978                       # Reads before turning the bus around for writes (Count)
system.farMem_ctrl.wrPerTurnAround::samples         5978                       # Writes before turning the bus around for reads (Count)
system.farMem_ctrl.wrPerTurnAround::mean    18.399632                       # Writes before turning the bus around for reads (Count)
system.farMem_ctrl.wrPerTurnAround::gmean    17.250390                       # Writes before turning the bus around for reads (Count)
system.farMem_ctrl.wrPerTurnAround::stdev    10.291943                       # Writes before turning the bus around for reads (Count)
system.farMem_ctrl.wrPerTurnAround::16-17         5538     92.64%     92.64% # Writes before turning the bus around for reads (Count)
system.farMem_ctrl.wrPerTurnAround::18-19           18      0.30%     92.94% # Writes before turning the bus around for reads (Count)
system.farMem_ctrl.wrPerTurnAround::20-21           14      0.23%     93.17% # Writes before turning the bus around for reads (Count)
system.farMem_ctrl.wrPerTurnAround::22-23           17      0.28%     93.46% # Writes before turning the bus around for reads (Count)
system.farMem_ctrl.wrPerTurnAround::24-25            8      0.13%     93.59% # Writes before turning the bus around for reads (Count)
system.farMem_ctrl.wrPerTurnAround::26-27           19      0.32%     93.91% # Writes before turning the bus around for reads (Count)
system.farMem_ctrl.wrPerTurnAround::28-29           15      0.25%     94.16% # Writes before turning the bus around for reads (Count)
system.farMem_ctrl.wrPerTurnAround::30-31           12      0.20%     94.36% # Writes before turning the bus around for reads (Count)
system.farMem_ctrl.wrPerTurnAround::32-33            9      0.15%     94.51% # Writes before turning the bus around for reads (Count)
system.farMem_ctrl.wrPerTurnAround::34-35            9      0.15%     94.66% # Writes before turning the bus around for reads (Count)
system.farMem_ctrl.wrPerTurnAround::36-37           13      0.22%     94.88% # Writes before turning the bus around for reads (Count)
system.farMem_ctrl.wrPerTurnAround::38-39           14      0.23%     95.12% # Writes before turning the bus around for reads (Count)
system.farMem_ctrl.wrPerTurnAround::40-41           15      0.25%     95.37% # Writes before turning the bus around for reads (Count)
system.farMem_ctrl.wrPerTurnAround::42-43           12      0.20%     95.57% # Writes before turning the bus around for reads (Count)
system.farMem_ctrl.wrPerTurnAround::44-45            5      0.08%     95.65% # Writes before turning the bus around for reads (Count)
system.farMem_ctrl.wrPerTurnAround::46-47           20      0.33%     95.99% # Writes before turning the bus around for reads (Count)
system.farMem_ctrl.wrPerTurnAround::48-49           27      0.45%     96.44% # Writes before turning the bus around for reads (Count)
system.farMem_ctrl.wrPerTurnAround::50-51           30      0.50%     96.94% # Writes before turning the bus around for reads (Count)
system.farMem_ctrl.wrPerTurnAround::52-53           18      0.30%     97.24% # Writes before turning the bus around for reads (Count)
system.farMem_ctrl.wrPerTurnAround::54-55           28      0.47%     97.71% # Writes before turning the bus around for reads (Count)
system.farMem_ctrl.wrPerTurnAround::56-57           19      0.32%     98.03% # Writes before turning the bus around for reads (Count)
system.farMem_ctrl.wrPerTurnAround::58-59           32      0.54%     98.56% # Writes before turning the bus around for reads (Count)
system.farMem_ctrl.wrPerTurnAround::60-61           13      0.22%     98.78% # Writes before turning the bus around for reads (Count)
system.farMem_ctrl.wrPerTurnAround::62-63            8      0.13%     98.91% # Writes before turning the bus around for reads (Count)
system.farMem_ctrl.wrPerTurnAround::64-65           11      0.18%     99.10% # Writes before turning the bus around for reads (Count)
system.farMem_ctrl.wrPerTurnAround::66-67            4      0.07%     99.16% # Writes before turning the bus around for reads (Count)
system.farMem_ctrl.wrPerTurnAround::68-69            2      0.03%     99.20% # Writes before turning the bus around for reads (Count)
system.farMem_ctrl.wrPerTurnAround::70-71            8      0.13%     99.33% # Writes before turning the bus around for reads (Count)
system.farMem_ctrl.wrPerTurnAround::72-73            4      0.07%     99.40% # Writes before turning the bus around for reads (Count)
system.farMem_ctrl.wrPerTurnAround::74-75            3      0.05%     99.45% # Writes before turning the bus around for reads (Count)
system.farMem_ctrl.wrPerTurnAround::76-77            2      0.03%     99.48% # Writes before turning the bus around for reads (Count)
system.farMem_ctrl.wrPerTurnAround::78-79            1      0.02%     99.50% # Writes before turning the bus around for reads (Count)
system.farMem_ctrl.wrPerTurnAround::80-81            3      0.05%     99.55% # Writes before turning the bus around for reads (Count)
system.farMem_ctrl.wrPerTurnAround::82-83            1      0.02%     99.57% # Writes before turning the bus around for reads (Count)
system.farMem_ctrl.wrPerTurnAround::84-85            2      0.03%     99.60% # Writes before turning the bus around for reads (Count)
system.farMem_ctrl.wrPerTurnAround::86-87            3      0.05%     99.65% # Writes before turning the bus around for reads (Count)
system.farMem_ctrl.wrPerTurnAround::88-89            2      0.03%     99.68% # Writes before turning the bus around for reads (Count)
system.farMem_ctrl.wrPerTurnAround::90-91            1      0.02%     99.70% # Writes before turning the bus around for reads (Count)
system.farMem_ctrl.wrPerTurnAround::92-93            2      0.03%     99.73% # Writes before turning the bus around for reads (Count)
system.farMem_ctrl.wrPerTurnAround::96-97            1      0.02%     99.75% # Writes before turning the bus around for reads (Count)
system.farMem_ctrl.wrPerTurnAround::98-99            2      0.03%     99.78% # Writes before turning the bus around for reads (Count)
system.farMem_ctrl.wrPerTurnAround::100-101            3      0.05%     99.83% # Writes before turning the bus around for reads (Count)
system.farMem_ctrl.wrPerTurnAround::102-103            1      0.02%     99.85% # Writes before turning the bus around for reads (Count)
system.farMem_ctrl.wrPerTurnAround::106-107            2      0.03%     99.88% # Writes before turning the bus around for reads (Count)
system.farMem_ctrl.wrPerTurnAround::112-113            2      0.03%     99.92% # Writes before turning the bus around for reads (Count)
system.farMem_ctrl.wrPerTurnAround::114-115            1      0.02%     99.93% # Writes before turning the bus around for reads (Count)
system.farMem_ctrl.wrPerTurnAround::118-119            1      0.02%     99.95% # Writes before turning the bus around for reads (Count)
system.farMem_ctrl.wrPerTurnAround::120-121            1      0.02%     99.97% # Writes before turning the bus around for reads (Count)
system.farMem_ctrl.wrPerTurnAround::164-165            1      0.02%     99.98% # Writes before turning the bus around for reads (Count)
system.farMem_ctrl.wrPerTurnAround::200-201            1      0.02%    100.00% # Writes before turning the bus around for reads (Count)
system.farMem_ctrl.wrPerTurnAround::total         5978                       # Writes before turning the bus around for reads (Count)
system.farMem_ctrl.bytesReadWrQ                  9408                       # Total number of bytes read from write queue (Byte)
system.farMem_ctrl.bytesReadSys               7049344                       # Total read bytes from the system interface side (Byte)
system.farMem_ctrl.bytesWrittenSys            7046784                       # Total written bytes from the system interface side (Byte)
system.farMem_ctrl.avgRdBWSys            7046039407.51787472                       # Average system read bandwidth in Byte/s ((Byte/Second))
system.farMem_ctrl.avgWrBWSys            7043480607.59503841                       # Average system write bandwidth in Byte/s ((Byte/Second))
system.farMem_ctrl.totGap                  1000409000                       # Total gap between requests (Tick)
system.farMem_ctrl.avgGap                     4542.11                       # Average gap between requests ((Tick/Count))
system.farMem_ctrl.requestorReadBytes::generator      7035904                       # Per-requestor bytes read from memory (Byte)
system.farMem_ctrl.requestorWriteBytes::writebacks      7039552                       # Per-requestor bytes write to memory (Byte)
system.farMem_ctrl.requestorReadRate::generator 7032605707.922985076904                       # Per-requestor bytes read from memory rate ((Byte/Second))
system.farMem_ctrl.requestorWriteRate::writebacks 7036251997.813026428223                       # Per-requestor bytes write to memory rate ((Byte/Second))
system.farMem_ctrl.requestorReadAccesses::generator       110146                       # Per-requestor read serviced memory accesses (Count)
system.farMem_ctrl.requestorWriteAccesses::writebacks       110106                       # Per-requestor write serviced memory accesses (Count)
system.farMem_ctrl.requestorReadTotalLat::generator  29170123120                       # Per-requestor read total memory access latency (Tick)
system.farMem_ctrl.requestorWriteTotalLat::writebacks 116312534450                       # Per-requestor write total memory access latency (Tick)
system.farMem_ctrl.requestorReadAvgLat::generator    264831.43                       # Per-requestor read average memory access latency ((Tick/Count))
system.farMem_ctrl.requestorWriteAvgLat::writebacks   1056368.72                       # Per-requestor write average memory access latency ((Tick/Count))
system.farMem_ctrl.power_state.pwrStateResidencyTicks::UNDEFINED   1000469000                       # Cumulative time (in ticks) in various power states (Tick)
system.generator.numSuppressed                      0                       # Number of suppressed packets to non-memory space (Count)
system.generator.numPackets                    110337                       # Number of packets generated (Count)
system.generator.numRetries                    108649                       # Number of retries (Count)
system.generator.retryTicks                 998630750                       # Time spent waiting due to back-pressure (Tick)
system.generator.bytesRead                    7044736                       # Number of bytes read (Byte)
system.generator.bytesWritten                       0                       # Number of bytes written (Byte)
system.generator.totalReadLatency        290330329500                       # Total latency of read requests (Tick)
system.generator.totalWriteLatency                  0                       # Total latency of write requests (Tick)
system.generator.totalReads                    110074                       # Total num of reads (Count)
system.generator.totalWrites                        0                       # Total num of writes (Count)
system.generator.avgReadLatency          2637592.251576                       # Avg latency of read requests ((Tick/Count))
system.generator.avgWriteLatency                  nan                       # Avg latency of write requests ((Tick/Count))
system.generator.readBW                  7041433567.656770                       # Read bandwidth ((Byte/Second))
system.generator.writeBW                            0                       # Write bandwidth ((Byte/Second))
system.generator.power_state.pwrStateResidencyTicks::UNDEFINED   1000469000                       # Cumulative time (in ticks) in various power states (Tick)
system.membus.transDist::ReadReq               110146                       # Transaction distribution (Count)
system.membus.transDist::ReadResp              110080                       # Transaction distribution (Count)
system.membus.transDist::WriteReq              110106                       # Transaction distribution (Count)
system.membus.transDist::WriteResp             110106                       # Transaction distribution (Count)
system.membus.pktCount_system.dcache_ctrl.req_port::system.farMem_ctrl.port       440438                       # Packet count per connected requestor and responder (Count)
system.membus.pktSize_system.dcache_ctrl.req_port::system.farMem_ctrl.port     14091904                       # Cumulative packet size per connected requestor and responder (Byte)
system.membus.snoops                                0                       # Total snoops (Count)
system.membus.snoopTraffic                          0                       # Total snoop traffic (Byte)
system.membus.snoopFanout::samples             276314                       # Request fanout histogram (Count)
system.membus.snoopFanout::mean                     0                       # Request fanout histogram (Count)
system.membus.snoopFanout::stdev                    0                       # Request fanout histogram (Count)
system.membus.snoopFanout::underflows               0      0.00%      0.00% # Request fanout histogram (Count)
system.membus.snoopFanout::0                   276314    100.00%    100.00% # Request fanout histogram (Count)
system.membus.snoopFanout::overflows                0      0.00%    100.00% # Request fanout histogram (Count)
system.membus.snoopFanout::min_value                0                       # Request fanout histogram (Count)
system.membus.snoopFanout::max_value                0                       # Request fanout histogram (Count)
system.membus.snoopFanout::total               276314                       # Request fanout histogram (Count)
system.membus.power_state.pwrStateResidencyTicks::UNDEFINED   1000469000                       # Cumulative time (in ticks) in various power states (Tick)
system.membus.reqLayer0.occupancy           186069190                       # Layer occupancy (ticks) (Tick)
system.membus.reqLayer0.utilization               0.2                       # Layer utilization (Ratio)
system.membus.respLayer0.occupancy          178351444                       # Layer occupancy (ticks) (Tick)
system.membus.respLayer0.utilization              0.2                       # Layer utilization (Ratio)
system.membus.snoop_filter.totRequests              0                       # Total number of requests made to the snoop filter. (Count)
system.membus.snoop_filter.hitSingleRequests            0                       # Number of requests hitting in the snoop filter with a single holder of the requested data. (Count)
system.membus.snoop_filter.hitMultiRequests            0                       # Number of requests hitting in the snoop filter with multiple (>1) holders of the requested data. (Count)
system.membus.snoop_filter.totSnoops                0                       # Total number of snoops made to the snoop filter. (Count)
system.membus.snoop_filter.hitSingleSnoops            0                       # Number of snoops hitting in the snoop filter with a single holder of the requested data. (Count)
system.membus.snoop_filter.hitMultiSnoops            0                       # Number of snoops hitting in the snoop filter with multiple (>1) holders of the requested data. (Count)
system.workload.inst.arm                            0                       # number of arm instructions executed (Count)
system.workload.inst.quiesce                        0                       # number of quiesce instructions executed (Count)

---------- End Simulation Statistics   ----------
