
---------- Begin Simulation Statistics ----------
simSeconds                                   0.099834                       # Number of seconds simulated (Second)
simTicks                                  99834372501                       # Number of ticks simulated (Tick)
finalTick                                169304533846501                       # Number of ticks from beginning of simulation (restored from checkpoints and never reset) (Tick)
simFreq                                  1000000000000                       # The number of ticks per simulated second ((Tick/Second))
hostSeconds                                    341.97                       # Real time elapsed on the host (Second)
hostTickRate                                291940404                       # The number of ticks simulated per host second (ticks/s) ((Tick/Second))
hostMemory                                    7352488                       # Number of bytes of host memory used (Byte)
simInsts                                  38420650011                       # Number of instructions simulated (Count)
simOps                                    38479515836                       # Number of ops (including micro ops) simulated (Count)
hostInstRate                                112351444                       # Simulator instruction rate (inst/s) ((Count/Second))
hostOpRate                                  112523580                       # Simulator op (including micro ops) rate (op/s) ((Count/Second))
system.work_item_type0::samples                     1                       # Run time stat forwork_item_type0 (Unspecified)
system.work_item_type0::mean              99834372501                       # Run time stat forwork_item_type0 (Unspecified)
system.work_item_type0::gmean            99834372501.000153                       # Run time stat forwork_item_type0 (Unspecified)
system.work_item_type0::stdev                     nan                       # Run time stat forwork_item_type0 (Unspecified)
system.work_item_type0::0-8.58993e+09               0      0.00%      0.00% # Run time stat forwork_item_type0 (Unspecified)
system.work_item_type0::8.58993e+09-1.71799e+10            0      0.00%      0.00% # Run time stat forwork_item_type0 (Unspecified)
system.work_item_type0::1.71799e+10-2.57698e+10            0      0.00%      0.00% # Run time stat forwork_item_type0 (Unspecified)
system.work_item_type0::2.57698e+10-3.43597e+10            0      0.00%      0.00% # Run time stat forwork_item_type0 (Unspecified)
system.work_item_type0::3.43597e+10-4.29497e+10            0      0.00%      0.00% # Run time stat forwork_item_type0 (Unspecified)
system.work_item_type0::4.29497e+10-5.15396e+10            0      0.00%      0.00% # Run time stat forwork_item_type0 (Unspecified)
system.work_item_type0::5.15396e+10-6.01295e+10            0      0.00%      0.00% # Run time stat forwork_item_type0 (Unspecified)
system.work_item_type0::6.01295e+10-6.87195e+10            0      0.00%      0.00% # Run time stat forwork_item_type0 (Unspecified)
system.work_item_type0::6.87195e+10-7.73094e+10            0      0.00%      0.00% # Run time stat forwork_item_type0 (Unspecified)
system.work_item_type0::7.73094e+10-8.58993e+10            0      0.00%      0.00% # Run time stat forwork_item_type0 (Unspecified)
system.work_item_type0::8.58993e+10-9.44893e+10            0      0.00%      0.00% # Run time stat forwork_item_type0 (Unspecified)
system.work_item_type0::9.44893e+10-1.03079e+11            1    100.00%    100.00% # Run time stat forwork_item_type0 (Unspecified)
system.work_item_type0::1.03079e+11-1.11669e+11            0      0.00%    100.00% # Run time stat forwork_item_type0 (Unspecified)
system.work_item_type0::1.11669e+11-1.20259e+11            0      0.00%    100.00% # Run time stat forwork_item_type0 (Unspecified)
system.work_item_type0::1.20259e+11-1.28849e+11            0      0.00%    100.00% # Run time stat forwork_item_type0 (Unspecified)
system.work_item_type0::1.28849e+11-1.37439e+11            0      0.00%    100.00% # Run time stat forwork_item_type0 (Unspecified)
system.work_item_type0::1.37439e+11-1.46029e+11            0      0.00%    100.00% # Run time stat forwork_item_type0 (Unspecified)
system.work_item_type0::1.46029e+11-1.54619e+11            0      0.00%    100.00% # Run time stat forwork_item_type0 (Unspecified)
system.work_item_type0::1.54619e+11-1.63209e+11            0      0.00%    100.00% # Run time stat forwork_item_type0 (Unspecified)
system.work_item_type0::1.63209e+11-1.71799e+11            0      0.00%    100.00% # Run time stat forwork_item_type0 (Unspecified)
system.work_item_type0::total                       1                       # Run time stat forwork_item_type0 (Unspecified)
system.atomicCpu0.numCycles                         0                       # Number of cpu cycles simulated (Cycle)
system.atomicCpu0.numWorkItemsStarted               0                       # Number of work items this cpu started (Count)
system.atomicCpu0.numWorkItemsCompleted             0                       # Number of work items this cpu completed (Count)
system.atomicCpu0.exec_context.thread_0.numInsts            0                       # Number of instructions committed (Count)
system.atomicCpu0.exec_context.thread_0.numOps            0                       # Number of ops (including micro ops) committed (Count)
system.atomicCpu0.exec_context.thread_0.numIntAluAccesses            0                       # Number of integer alu accesses (Count)
system.atomicCpu0.exec_context.thread_0.numFpAluAccesses            0                       # Number of float alu accesses (Count)
system.atomicCpu0.exec_context.thread_0.numVecAluAccesses            0                       # Number of vector alu accesses (Count)
system.atomicCpu0.exec_context.thread_0.numCallsReturns            0                       # Number of times a function call or return occured (Count)
system.atomicCpu0.exec_context.thread_0.numCondCtrlInsts            0                       # Number of instructions that are conditional controls (Count)
system.atomicCpu0.exec_context.thread_0.numIntInsts            0                       # Number of integer instructions (Count)
system.atomicCpu0.exec_context.thread_0.numFpInsts            0                       # Number of float instructions (Count)
system.atomicCpu0.exec_context.thread_0.numVecInsts            0                       # Number of vector instructions (Count)
system.atomicCpu0.exec_context.thread_0.numIntRegReads            0                       # Number of times the integer registers were read (Count)
system.atomicCpu0.exec_context.thread_0.numIntRegWrites            0                       # Number of times the integer registers were written (Count)
system.atomicCpu0.exec_context.thread_0.numFpRegReads            0                       # Number of times the floating registers were read (Count)
system.atomicCpu0.exec_context.thread_0.numFpRegWrites            0                       # Number of times the floating registers were written (Count)
system.atomicCpu0.exec_context.thread_0.numVecRegReads            0                       # Number of times the vector registers were read (Count)
system.atomicCpu0.exec_context.thread_0.numVecRegWrites            0                       # Number of times the vector registers were written (Count)
system.atomicCpu0.exec_context.thread_0.numVecPredRegReads            0                       # Number of times the predicate registers were read (Count)
system.atomicCpu0.exec_context.thread_0.numVecPredRegWrites            0                       # Number of times the predicate registers were written (Count)
system.atomicCpu0.exec_context.thread_0.numMiscRegReads            0                       # Number of times the Misc registers were read (Count)
system.atomicCpu0.exec_context.thread_0.numMiscRegWrites            0                       # Number of times the Misc registers were written (Count)
system.atomicCpu0.exec_context.thread_0.numMemRefs            0                       # Number of memory refs (Count)
system.atomicCpu0.exec_context.thread_0.numLoadInsts            0                       # Number of load instructions (Count)
system.atomicCpu0.exec_context.thread_0.numStoreInsts            0                       # Number of store instructions (Count)
system.atomicCpu0.exec_context.thread_0.numIdleCycles            0                       # Number of idle cycles (Cycle)
system.atomicCpu0.exec_context.thread_0.numBusyCycles            0                       # Number of busy cycles (Cycle)
system.atomicCpu0.exec_context.thread_0.notIdleFraction            0                       # Percentage of non-idle cycles (Ratio)
system.atomicCpu0.exec_context.thread_0.idleFraction            1                       # Percentage of idle cycles (Ratio)
system.atomicCpu0.exec_context.thread_0.statExecutedInstType::No_OpClass            0                       # Class of executed instruction. (Count)
system.atomicCpu0.exec_context.thread_0.statExecutedInstType::IntAlu            0                       # Class of executed instruction. (Count)
system.atomicCpu0.exec_context.thread_0.statExecutedInstType::IntMult            0                       # Class of executed instruction. (Count)
system.atomicCpu0.exec_context.thread_0.statExecutedInstType::IntDiv            0                       # Class of executed instruction. (Count)
system.atomicCpu0.exec_context.thread_0.statExecutedInstType::FloatAdd            0                       # Class of executed instruction. (Count)
system.atomicCpu0.exec_context.thread_0.statExecutedInstType::FloatCmp            0                       # Class of executed instruction. (Count)
system.atomicCpu0.exec_context.thread_0.statExecutedInstType::FloatCvt            0                       # Class of executed instruction. (Count)
system.atomicCpu0.exec_context.thread_0.statExecutedInstType::FloatMult            0                       # Class of executed instruction. (Count)
system.atomicCpu0.exec_context.thread_0.statExecutedInstType::FloatMultAcc            0                       # Class of executed instruction. (Count)
system.atomicCpu0.exec_context.thread_0.statExecutedInstType::FloatDiv            0                       # Class of executed instruction. (Count)
system.atomicCpu0.exec_context.thread_0.statExecutedInstType::FloatMisc            0                       # Class of executed instruction. (Count)
system.atomicCpu0.exec_context.thread_0.statExecutedInstType::FloatSqrt            0                       # Class of executed instruction. (Count)
system.atomicCpu0.exec_context.thread_0.statExecutedInstType::SimdAdd            0                       # Class of executed instruction. (Count)
system.atomicCpu0.exec_context.thread_0.statExecutedInstType::SimdAddAcc            0                       # Class of executed instruction. (Count)
system.atomicCpu0.exec_context.thread_0.statExecutedInstType::SimdAlu            0                       # Class of executed instruction. (Count)
system.atomicCpu0.exec_context.thread_0.statExecutedInstType::SimdCmp            0                       # Class of executed instruction. (Count)
system.atomicCpu0.exec_context.thread_0.statExecutedInstType::SimdCvt            0                       # Class of executed instruction. (Count)
system.atomicCpu0.exec_context.thread_0.statExecutedInstType::SimdMisc            0                       # Class of executed instruction. (Count)
system.atomicCpu0.exec_context.thread_0.statExecutedInstType::SimdMult            0                       # Class of executed instruction. (Count)
system.atomicCpu0.exec_context.thread_0.statExecutedInstType::SimdMultAcc            0                       # Class of executed instruction. (Count)
system.atomicCpu0.exec_context.thread_0.statExecutedInstType::SimdShift            0                       # Class of executed instruction. (Count)
system.atomicCpu0.exec_context.thread_0.statExecutedInstType::SimdShiftAcc            0                       # Class of executed instruction. (Count)
system.atomicCpu0.exec_context.thread_0.statExecutedInstType::SimdDiv            0                       # Class of executed instruction. (Count)
system.atomicCpu0.exec_context.thread_0.statExecutedInstType::SimdSqrt            0                       # Class of executed instruction. (Count)
system.atomicCpu0.exec_context.thread_0.statExecutedInstType::SimdFloatAdd            0                       # Class of executed instruction. (Count)
system.atomicCpu0.exec_context.thread_0.statExecutedInstType::SimdFloatAlu            0                       # Class of executed instruction. (Count)
system.atomicCpu0.exec_context.thread_0.statExecutedInstType::SimdFloatCmp            0                       # Class of executed instruction. (Count)
system.atomicCpu0.exec_context.thread_0.statExecutedInstType::SimdFloatCvt            0                       # Class of executed instruction. (Count)
system.atomicCpu0.exec_context.thread_0.statExecutedInstType::SimdFloatDiv            0                       # Class of executed instruction. (Count)
system.atomicCpu0.exec_context.thread_0.statExecutedInstType::SimdFloatMisc            0                       # Class of executed instruction. (Count)
system.atomicCpu0.exec_context.thread_0.statExecutedInstType::SimdFloatMult            0                       # Class of executed instruction. (Count)
system.atomicCpu0.exec_context.thread_0.statExecutedInstType::SimdFloatMultAcc            0                       # Class of executed instruction. (Count)
system.atomicCpu0.exec_context.thread_0.statExecutedInstType::SimdFloatSqrt            0                       # Class of executed instruction. (Count)
system.atomicCpu0.exec_context.thread_0.statExecutedInstType::SimdReduceAdd            0                       # Class of executed instruction. (Count)
system.atomicCpu0.exec_context.thread_0.statExecutedInstType::SimdReduceAlu            0                       # Class of executed instruction. (Count)
system.atomicCpu0.exec_context.thread_0.statExecutedInstType::SimdReduceCmp            0                       # Class of executed instruction. (Count)
system.atomicCpu0.exec_context.thread_0.statExecutedInstType::SimdFloatReduceAdd            0                       # Class of executed instruction. (Count)
system.atomicCpu0.exec_context.thread_0.statExecutedInstType::SimdFloatReduceCmp            0                       # Class of executed instruction. (Count)
system.atomicCpu0.exec_context.thread_0.statExecutedInstType::SimdAes            0                       # Class of executed instruction. (Count)
system.atomicCpu0.exec_context.thread_0.statExecutedInstType::SimdAesMix            0                       # Class of executed instruction. (Count)
system.atomicCpu0.exec_context.thread_0.statExecutedInstType::SimdSha1Hash            0                       # Class of executed instruction. (Count)
system.atomicCpu0.exec_context.thread_0.statExecutedInstType::SimdSha1Hash2            0                       # Class of executed instruction. (Count)
system.atomicCpu0.exec_context.thread_0.statExecutedInstType::SimdSha256Hash            0                       # Class of executed instruction. (Count)
system.atomicCpu0.exec_context.thread_0.statExecutedInstType::SimdSha256Hash2            0                       # Class of executed instruction. (Count)
system.atomicCpu0.exec_context.thread_0.statExecutedInstType::SimdShaSigma2            0                       # Class of executed instruction. (Count)
system.atomicCpu0.exec_context.thread_0.statExecutedInstType::SimdShaSigma3            0                       # Class of executed instruction. (Count)
system.atomicCpu0.exec_context.thread_0.statExecutedInstType::SimdPredAlu            0                       # Class of executed instruction. (Count)
system.atomicCpu0.exec_context.thread_0.statExecutedInstType::MemRead            0                       # Class of executed instruction. (Count)
system.atomicCpu0.exec_context.thread_0.statExecutedInstType::MemWrite            0                       # Class of executed instruction. (Count)
system.atomicCpu0.exec_context.thread_0.statExecutedInstType::FloatMemRead            0                       # Class of executed instruction. (Count)
system.atomicCpu0.exec_context.thread_0.statExecutedInstType::FloatMemWrite            0                       # Class of executed instruction. (Count)
system.atomicCpu0.exec_context.thread_0.statExecutedInstType::IprAccess            0                       # Class of executed instruction. (Count)
system.atomicCpu0.exec_context.thread_0.statExecutedInstType::InstPrefetch            0                       # Class of executed instruction. (Count)
system.atomicCpu0.exec_context.thread_0.statExecutedInstType::total            0                       # Class of executed instruction. (Count)
system.atomicCpu0.mmu.dtb.rdAccesses                0                       # TLB accesses on read requests (Count)
system.atomicCpu0.mmu.dtb.wrAccesses                0                       # TLB accesses on write requests (Count)
system.atomicCpu0.mmu.dtb.rdMisses                  0                       # TLB misses on read requests (Count)
system.atomicCpu0.mmu.dtb.wrMisses                  0                       # TLB misses on write requests (Count)
system.atomicCpu0.mmu.dtb.walker.power_state.pwrStateResidencyTicks::UNDEFINED 169304533846501                       # Cumulative time (in ticks) in various power states (Tick)
system.atomicCpu0.mmu.itb.rdAccesses                0                       # TLB accesses on read requests (Count)
system.atomicCpu0.mmu.itb.wrAccesses                0                       # TLB accesses on write requests (Count)
system.atomicCpu0.mmu.itb.rdMisses                  0                       # TLB misses on read requests (Count)
system.atomicCpu0.mmu.itb.wrMisses                  0                       # TLB misses on write requests (Count)
system.atomicCpu0.mmu.itb.walker.power_state.pwrStateResidencyTicks::UNDEFINED 169304533846501                       # Cumulative time (in ticks) in various power states (Tick)
system.atomicCpu0.power_state.pwrStateResidencyTicks::OFF 169304533846501                       # Cumulative time (in ticks) in various power states (Tick)
system.atomicCpu0.thread_0.numInsts                 0                       # Number of Instructions committed (Count)
system.atomicCpu0.thread_0.numOps                   0                       # Number of Ops committed (Count)
system.atomicCpu0.thread_0.numMemRefs               0                       # Number of Memory References (Count)
system.atomicCpu1.numCycles                         0                       # Number of cpu cycles simulated (Cycle)
system.atomicCpu1.numWorkItemsStarted               0                       # Number of work items this cpu started (Count)
system.atomicCpu1.numWorkItemsCompleted             0                       # Number of work items this cpu completed (Count)
system.atomicCpu1.exec_context.thread_0.numInsts            0                       # Number of instructions committed (Count)
system.atomicCpu1.exec_context.thread_0.numOps            0                       # Number of ops (including micro ops) committed (Count)
system.atomicCpu1.exec_context.thread_0.numIntAluAccesses            0                       # Number of integer alu accesses (Count)
system.atomicCpu1.exec_context.thread_0.numFpAluAccesses            0                       # Number of float alu accesses (Count)
system.atomicCpu1.exec_context.thread_0.numVecAluAccesses            0                       # Number of vector alu accesses (Count)
system.atomicCpu1.exec_context.thread_0.numCallsReturns            0                       # Number of times a function call or return occured (Count)
system.atomicCpu1.exec_context.thread_0.numCondCtrlInsts            0                       # Number of instructions that are conditional controls (Count)
system.atomicCpu1.exec_context.thread_0.numIntInsts            0                       # Number of integer instructions (Count)
system.atomicCpu1.exec_context.thread_0.numFpInsts            0                       # Number of float instructions (Count)
system.atomicCpu1.exec_context.thread_0.numVecInsts            0                       # Number of vector instructions (Count)
system.atomicCpu1.exec_context.thread_0.numIntRegReads            0                       # Number of times the integer registers were read (Count)
system.atomicCpu1.exec_context.thread_0.numIntRegWrites            0                       # Number of times the integer registers were written (Count)
system.atomicCpu1.exec_context.thread_0.numFpRegReads            0                       # Number of times the floating registers were read (Count)
system.atomicCpu1.exec_context.thread_0.numFpRegWrites            0                       # Number of times the floating registers were written (Count)
system.atomicCpu1.exec_context.thread_0.numVecRegReads            0                       # Number of times the vector registers were read (Count)
system.atomicCpu1.exec_context.thread_0.numVecRegWrites            0                       # Number of times the vector registers were written (Count)
system.atomicCpu1.exec_context.thread_0.numVecPredRegReads            0                       # Number of times the predicate registers were read (Count)
system.atomicCpu1.exec_context.thread_0.numVecPredRegWrites            0                       # Number of times the predicate registers were written (Count)
system.atomicCpu1.exec_context.thread_0.numMiscRegReads            0                       # Number of times the Misc registers were read (Count)
system.atomicCpu1.exec_context.thread_0.numMiscRegWrites            0                       # Number of times the Misc registers were written (Count)
system.atomicCpu1.exec_context.thread_0.numMemRefs            0                       # Number of memory refs (Count)
system.atomicCpu1.exec_context.thread_0.numLoadInsts            0                       # Number of load instructions (Count)
system.atomicCpu1.exec_context.thread_0.numStoreInsts            0                       # Number of store instructions (Count)
system.atomicCpu1.exec_context.thread_0.numIdleCycles            0                       # Number of idle cycles (Cycle)
system.atomicCpu1.exec_context.thread_0.numBusyCycles            0                       # Number of busy cycles (Cycle)
system.atomicCpu1.exec_context.thread_0.notIdleFraction            0                       # Percentage of non-idle cycles (Ratio)
system.atomicCpu1.exec_context.thread_0.idleFraction            1                       # Percentage of idle cycles (Ratio)
system.atomicCpu1.exec_context.thread_0.statExecutedInstType::No_OpClass            0                       # Class of executed instruction. (Count)
system.atomicCpu1.exec_context.thread_0.statExecutedInstType::IntAlu            0                       # Class of executed instruction. (Count)
system.atomicCpu1.exec_context.thread_0.statExecutedInstType::IntMult            0                       # Class of executed instruction. (Count)
system.atomicCpu1.exec_context.thread_0.statExecutedInstType::IntDiv            0                       # Class of executed instruction. (Count)
system.atomicCpu1.exec_context.thread_0.statExecutedInstType::FloatAdd            0                       # Class of executed instruction. (Count)
system.atomicCpu1.exec_context.thread_0.statExecutedInstType::FloatCmp            0                       # Class of executed instruction. (Count)
system.atomicCpu1.exec_context.thread_0.statExecutedInstType::FloatCvt            0                       # Class of executed instruction. (Count)
system.atomicCpu1.exec_context.thread_0.statExecutedInstType::FloatMult            0                       # Class of executed instruction. (Count)
system.atomicCpu1.exec_context.thread_0.statExecutedInstType::FloatMultAcc            0                       # Class of executed instruction. (Count)
system.atomicCpu1.exec_context.thread_0.statExecutedInstType::FloatDiv            0                       # Class of executed instruction. (Count)
system.atomicCpu1.exec_context.thread_0.statExecutedInstType::FloatMisc            0                       # Class of executed instruction. (Count)
system.atomicCpu1.exec_context.thread_0.statExecutedInstType::FloatSqrt            0                       # Class of executed instruction. (Count)
system.atomicCpu1.exec_context.thread_0.statExecutedInstType::SimdAdd            0                       # Class of executed instruction. (Count)
system.atomicCpu1.exec_context.thread_0.statExecutedInstType::SimdAddAcc            0                       # Class of executed instruction. (Count)
system.atomicCpu1.exec_context.thread_0.statExecutedInstType::SimdAlu            0                       # Class of executed instruction. (Count)
system.atomicCpu1.exec_context.thread_0.statExecutedInstType::SimdCmp            0                       # Class of executed instruction. (Count)
system.atomicCpu1.exec_context.thread_0.statExecutedInstType::SimdCvt            0                       # Class of executed instruction. (Count)
system.atomicCpu1.exec_context.thread_0.statExecutedInstType::SimdMisc            0                       # Class of executed instruction. (Count)
system.atomicCpu1.exec_context.thread_0.statExecutedInstType::SimdMult            0                       # Class of executed instruction. (Count)
system.atomicCpu1.exec_context.thread_0.statExecutedInstType::SimdMultAcc            0                       # Class of executed instruction. (Count)
system.atomicCpu1.exec_context.thread_0.statExecutedInstType::SimdShift            0                       # Class of executed instruction. (Count)
system.atomicCpu1.exec_context.thread_0.statExecutedInstType::SimdShiftAcc            0                       # Class of executed instruction. (Count)
system.atomicCpu1.exec_context.thread_0.statExecutedInstType::SimdDiv            0                       # Class of executed instruction. (Count)
system.atomicCpu1.exec_context.thread_0.statExecutedInstType::SimdSqrt            0                       # Class of executed instruction. (Count)
system.atomicCpu1.exec_context.thread_0.statExecutedInstType::SimdFloatAdd            0                       # Class of executed instruction. (Count)
system.atomicCpu1.exec_context.thread_0.statExecutedInstType::SimdFloatAlu            0                       # Class of executed instruction. (Count)
system.atomicCpu1.exec_context.thread_0.statExecutedInstType::SimdFloatCmp            0                       # Class of executed instruction. (Count)
system.atomicCpu1.exec_context.thread_0.statExecutedInstType::SimdFloatCvt            0                       # Class of executed instruction. (Count)
system.atomicCpu1.exec_context.thread_0.statExecutedInstType::SimdFloatDiv            0                       # Class of executed instruction. (Count)
system.atomicCpu1.exec_context.thread_0.statExecutedInstType::SimdFloatMisc            0                       # Class of executed instruction. (Count)
system.atomicCpu1.exec_context.thread_0.statExecutedInstType::SimdFloatMult            0                       # Class of executed instruction. (Count)
system.atomicCpu1.exec_context.thread_0.statExecutedInstType::SimdFloatMultAcc            0                       # Class of executed instruction. (Count)
system.atomicCpu1.exec_context.thread_0.statExecutedInstType::SimdFloatSqrt            0                       # Class of executed instruction. (Count)
system.atomicCpu1.exec_context.thread_0.statExecutedInstType::SimdReduceAdd            0                       # Class of executed instruction. (Count)
system.atomicCpu1.exec_context.thread_0.statExecutedInstType::SimdReduceAlu            0                       # Class of executed instruction. (Count)
system.atomicCpu1.exec_context.thread_0.statExecutedInstType::SimdReduceCmp            0                       # Class of executed instruction. (Count)
system.atomicCpu1.exec_context.thread_0.statExecutedInstType::SimdFloatReduceAdd            0                       # Class of executed instruction. (Count)
system.atomicCpu1.exec_context.thread_0.statExecutedInstType::SimdFloatReduceCmp            0                       # Class of executed instruction. (Count)
system.atomicCpu1.exec_context.thread_0.statExecutedInstType::SimdAes            0                       # Class of executed instruction. (Count)
system.atomicCpu1.exec_context.thread_0.statExecutedInstType::SimdAesMix            0                       # Class of executed instruction. (Count)
system.atomicCpu1.exec_context.thread_0.statExecutedInstType::SimdSha1Hash            0                       # Class of executed instruction. (Count)
system.atomicCpu1.exec_context.thread_0.statExecutedInstType::SimdSha1Hash2            0                       # Class of executed instruction. (Count)
system.atomicCpu1.exec_context.thread_0.statExecutedInstType::SimdSha256Hash            0                       # Class of executed instruction. (Count)
system.atomicCpu1.exec_context.thread_0.statExecutedInstType::SimdSha256Hash2            0                       # Class of executed instruction. (Count)
system.atomicCpu1.exec_context.thread_0.statExecutedInstType::SimdShaSigma2            0                       # Class of executed instruction. (Count)
system.atomicCpu1.exec_context.thread_0.statExecutedInstType::SimdShaSigma3            0                       # Class of executed instruction. (Count)
system.atomicCpu1.exec_context.thread_0.statExecutedInstType::SimdPredAlu            0                       # Class of executed instruction. (Count)
system.atomicCpu1.exec_context.thread_0.statExecutedInstType::MemRead            0                       # Class of executed instruction. (Count)
system.atomicCpu1.exec_context.thread_0.statExecutedInstType::MemWrite            0                       # Class of executed instruction. (Count)
system.atomicCpu1.exec_context.thread_0.statExecutedInstType::FloatMemRead            0                       # Class of executed instruction. (Count)
system.atomicCpu1.exec_context.thread_0.statExecutedInstType::FloatMemWrite            0                       # Class of executed instruction. (Count)
system.atomicCpu1.exec_context.thread_0.statExecutedInstType::IprAccess            0                       # Class of executed instruction. (Count)
system.atomicCpu1.exec_context.thread_0.statExecutedInstType::InstPrefetch            0                       # Class of executed instruction. (Count)
system.atomicCpu1.exec_context.thread_0.statExecutedInstType::total            0                       # Class of executed instruction. (Count)
system.atomicCpu1.mmu.dtb.rdAccesses                0                       # TLB accesses on read requests (Count)
system.atomicCpu1.mmu.dtb.wrAccesses                0                       # TLB accesses on write requests (Count)
system.atomicCpu1.mmu.dtb.rdMisses                  0                       # TLB misses on read requests (Count)
system.atomicCpu1.mmu.dtb.wrMisses                  0                       # TLB misses on write requests (Count)
system.atomicCpu1.mmu.dtb.walker.power_state.pwrStateResidencyTicks::UNDEFINED 169304533846501                       # Cumulative time (in ticks) in various power states (Tick)
system.atomicCpu1.mmu.itb.rdAccesses                0                       # TLB accesses on read requests (Count)
system.atomicCpu1.mmu.itb.wrAccesses                0                       # TLB accesses on write requests (Count)
system.atomicCpu1.mmu.itb.rdMisses                  0                       # TLB misses on read requests (Count)
system.atomicCpu1.mmu.itb.wrMisses                  0                       # TLB misses on write requests (Count)
system.atomicCpu1.mmu.itb.walker.power_state.pwrStateResidencyTicks::UNDEFINED 169304533846501                       # Cumulative time (in ticks) in various power states (Tick)
system.atomicCpu1.power_state.pwrStateResidencyTicks::OFF 169304533846501                       # Cumulative time (in ticks) in various power states (Tick)
system.atomicCpu1.thread_0.numInsts                 0                       # Number of Instructions committed (Count)
system.atomicCpu1.thread_0.numOps                   0                       # Number of Ops committed (Count)
system.atomicCpu1.thread_0.numMemRefs               0                       # Number of Memory References (Count)
system.caches.delayHistogram::bucket_size           64                       # delay histogram for all message (Unspecified)
system.caches.delayHistogram::max_bucket          639                       # delay histogram for all message (Unspecified)
system.caches.delayHistogram::samples         8776208                       # delay histogram for all message (Unspecified)
system.caches.delayHistogram::mean           0.173390                       # delay histogram for all message (Unspecified)
system.caches.delayHistogram::stdev          1.194239                       # delay histogram for all message (Unspecified)
system.caches.delayHistogram             |     8776198    100.00%    100.00% |           3      0.00%    100.00% |           3      0.00%    100.00% |           0      0.00%    100.00% |           1      0.00%    100.00% |           2      0.00%    100.00% |           1      0.00%    100.00% |           0      0.00%    100.00% |           0      0.00%    100.00% |           0      0.00%    100.00% # delay histogram for all message (Unspecified)
system.caches.delayHistogram::total           8776208                       # delay histogram for all message (Unspecified)
system.caches.m_outstandReqHistSeqr::bucket_size            1                       (Unspecified)
system.caches.m_outstandReqHistSeqr::max_bucket            9                       (Unspecified)
system.caches.m_outstandReqHistSeqr::samples    135120455                       (Unspecified)
system.caches.m_outstandReqHistSeqr::mean     1.000005                       (Unspecified)
system.caches.m_outstandReqHistSeqr::gmean     1.000004                       (Unspecified)
system.caches.m_outstandReqHistSeqr::stdev     0.002270                       (Unspecified)
system.caches.m_outstandReqHistSeqr      |           0      0.00%      0.00% |   135119759    100.00%    100.00% |         696      0.00%    100.00% |           0      0.00%    100.00% |           0      0.00%    100.00% |           0      0.00%    100.00% |           0      0.00%    100.00% |           0      0.00%    100.00% |           0      0.00%    100.00% |           0      0.00%    100.00% (Unspecified)
system.caches.m_outstandReqHistSeqr::total    135120455                       (Unspecified)
system.caches.m_latencyHistSeqr::bucket_size          512                       (Unspecified)
system.caches.m_latencyHistSeqr::max_bucket         5119                       (Unspecified)
system.caches.m_latencyHistSeqr::samples    135120453                       (Unspecified)
system.caches.m_latencyHistSeqr::mean        4.881507                       (Unspecified)
system.caches.m_latencyHistSeqr::gmean       1.057682                       (Unspecified)
system.caches.m_latencyHistSeqr::stdev      46.965309                       (Unspecified)
system.caches.m_latencyHistSeqr          |   134829335     99.78%     99.78% |      267678      0.20%     99.98% |        5010      0.00%     99.99% |       16514      0.01%    100.00% |        1906      0.00%    100.00% |          10      0.00%    100.00% |           0      0.00%    100.00% |           0      0.00%    100.00% |           0      0.00%    100.00% |           0      0.00%    100.00% (Unspecified)
system.caches.m_latencyHistSeqr::total      135120453                       (Unspecified)
system.caches.m_hitLatencyHistSeqr::bucket_size            1                       (Unspecified)
system.caches.m_hitLatencyHistSeqr::max_bucket            9                       (Unspecified)
system.caches.m_hitLatencyHistSeqr::samples    133746710                       (Unspecified)
system.caches.m_hitLatencyHistSeqr::mean            1                       (Unspecified)
system.caches.m_hitLatencyHistSeqr::gmean            1                       (Unspecified)
system.caches.m_hitLatencyHistSeqr       |           0      0.00%      0.00% |   133746710    100.00%    100.00% |           0      0.00%    100.00% |           0      0.00%    100.00% |           0      0.00%    100.00% |           0      0.00%    100.00% |           0      0.00%    100.00% |           0      0.00%    100.00% |           0      0.00%    100.00% |           0      0.00%    100.00% (Unspecified)
system.caches.m_hitLatencyHistSeqr::total    133746710                       (Unspecified)
system.caches.m_missLatencyHistSeqr::bucket_size          512                       (Unspecified)
system.caches.m_missLatencyHistSeqr::max_bucket         5119                       (Unspecified)
system.caches.m_missLatencyHistSeqr::samples      1373743                       (Unspecified)
system.caches.m_missLatencyHistSeqr::mean   382.782437                       (Unspecified)
system.caches.m_missLatencyHistSeqr::gmean   248.634076                       (Unspecified)
system.caches.m_missLatencyHistSeqr::stdev   269.590920                       (Unspecified)
system.caches.m_missLatencyHistSeqr      |     1082625     78.81%     78.81% |      267678     19.49%     98.29% |        5010      0.36%     98.66% |       16514      1.20%     99.86% |        1906      0.14%    100.00% |          10      0.00%    100.00% |           0      0.00%    100.00% |           0      0.00%    100.00% |           0      0.00%    100.00% |           0      0.00%    100.00% (Unspecified)
system.caches.m_missLatencyHistSeqr::total      1373743                       (Unspecified)
system.caches.delayVCHist.vnet_0::bucket_size           64                       # delay histogram for vnet_0 (Unspecified)
system.caches.delayVCHist.vnet_0::max_bucket          639                       # delay histogram for vnet_0 (Unspecified)
system.caches.delayVCHist.vnet_0::samples      3863984                       # delay histogram for vnet_0 (Unspecified)
system.caches.delayVCHist.vnet_0::mean       0.393016                       # delay histogram for vnet_0 (Unspecified)
system.caches.delayVCHist.vnet_0::stdev      1.774550                       # delay histogram for vnet_0 (Unspecified)
system.caches.delayVCHist.vnet_0         |     3863974    100.00%    100.00% |           3      0.00%    100.00% |           3      0.00%    100.00% |           0      0.00%    100.00% |           1      0.00%    100.00% |           2      0.00%    100.00% |           1      0.00%    100.00% |           0      0.00%    100.00% |           0      0.00%    100.00% |           0      0.00%    100.00% # delay histogram for vnet_0 (Unspecified)
system.caches.delayVCHist.vnet_0::total       3863984                       # delay histogram for vnet_0 (Unspecified)
system.caches.delayVCHist.vnet_1::bucket_size            1                       # delay histogram for vnet_1 (Unspecified)
system.caches.delayVCHist.vnet_1::max_bucket            9                       # delay histogram for vnet_1 (Unspecified)
system.caches.delayVCHist.vnet_1::samples      4817892                       # delay histogram for vnet_1 (Unspecified)
system.caches.delayVCHist.vnet_1::mean       0.000642                       # delay histogram for vnet_1 (Unspecified)
system.caches.delayVCHist.vnet_1::stdev      0.057437                       # delay histogram for vnet_1 (Unspecified)
system.caches.delayVCHist.vnet_1         |     4817178     99.99%     99.99% |           0      0.00%     99.99% |         192      0.00%     99.99% |           0      0.00%     99.99% |         284      0.01%    100.00% |           0      0.00%    100.00% |         166      0.00%    100.00% |           0      0.00%    100.00% |          72      0.00%    100.00% |           0      0.00%    100.00% # delay histogram for vnet_1 (Unspecified)
system.caches.delayVCHist.vnet_1::total       4817892                       # delay histogram for vnet_1 (Unspecified)
system.caches.delayVCHist.vnet_2::bucket_size            1                       # delay histogram for vnet_2 (Unspecified)
system.caches.delayVCHist.vnet_2::max_bucket            9                       # delay histogram for vnet_2 (Unspecified)
system.caches.delayVCHist.vnet_2::samples        94332                       # delay histogram for vnet_2 (Unspecified)
system.caches.delayVCHist.vnet_2::mean       0.000106                       # delay histogram for vnet_2 (Unspecified)
system.caches.delayVCHist.vnet_2::stdev      0.014560                       # delay histogram for vnet_2 (Unspecified)
system.caches.delayVCHist.vnet_2         |       94327     99.99%     99.99% |           0      0.00%     99.99% |           5      0.01%    100.00% |           0      0.00%    100.00% |           0      0.00%    100.00% |           0      0.00%    100.00% |           0      0.00%    100.00% |           0      0.00%    100.00% |           0      0.00%    100.00% |           0      0.00%    100.00% # delay histogram for vnet_2 (Unspecified)
system.caches.delayVCHist.vnet_2::total         94332                       # delay histogram for vnet_2 (Unspecified)
system.caches.L1Cache_Controller.Load    |    10576225     51.35%     51.35% |    10020552     48.65%    100.00% (Unspecified)
system.caches.L1Cache_Controller.Load::total     20596777                       (Unspecified)
system.caches.L1Cache_Controller.Ifetch  |    57861144     52.45%     52.45% |    52451971     47.55%    100.00% (Unspecified)
system.caches.L1Cache_Controller.Ifetch::total    110313115                       (Unspecified)
system.caches.L1Cache_Controller.Store   |     1988008     47.21%     47.21% |     2222553     52.79%    100.00% (Unspecified)
system.caches.L1Cache_Controller.Store::total      4210561                       (Unspecified)
system.caches.L1Cache_Controller.Inv     |       14771     52.40%     52.40% |       13417     47.60%    100.00% (Unspecified)
system.caches.L1Cache_Controller.Inv::total        28188                       (Unspecified)
system.caches.L1Cache_Controller.L1_Replacement |      642777     49.77%     49.77% |      648615     50.23%    100.00% (Unspecified)
system.caches.L1Cache_Controller.L1_Replacement::total      1291392                       (Unspecified)
system.caches.L1Cache_Controller.Fwd_GETX |       25604     49.73%     49.73% |       25878     50.27%    100.00% (Unspecified)
system.caches.L1Cache_Controller.Fwd_GETX::total        51482                       (Unspecified)
system.caches.L1Cache_Controller.Fwd_GETS |        6683     45.58%     45.58% |        7979     54.42%    100.00% (Unspecified)
system.caches.L1Cache_Controller.Fwd_GETS::total        14662                       (Unspecified)
system.caches.L1Cache_Controller.Data    |         135     15.41%     15.41% |         741     84.59%    100.00% (Unspecified)
system.caches.L1Cache_Controller.Data::total          876                       (Unspecified)
system.caches.L1Cache_Controller.Data_Exclusive |      586338     50.12%     50.12% |      583575     49.88%    100.00% (Unspecified)
system.caches.L1Cache_Controller.Data_Exclusive::total      1169913                       (Unspecified)
system.caches.L1Cache_Controller.DataS_fromL1 |        7979     54.42%     54.42% |        6683     45.58%    100.00% (Unspecified)
system.caches.L1Cache_Controller.DataS_fromL1::total        14662                       (Unspecified)
system.caches.L1Cache_Controller.Data_all_Acks |       85920     47.10%     47.10% |       96502     52.90%    100.00% (Unspecified)
system.caches.L1Cache_Controller.Data_all_Acks::total       182422                       (Unspecified)
system.caches.L1Cache_Controller.Ack     |        2143     36.51%     36.51% |        3727     63.49%    100.00% (Unspecified)
system.caches.L1Cache_Controller.Ack::total         5870                       (Unspecified)
system.caches.L1Cache_Controller.Ack_all |        2278     33.77%     33.77% |        4468     66.23%    100.00% (Unspecified)
system.caches.L1Cache_Controller.Ack_all::total         6746                       (Unspecified)
system.caches.L1Cache_Controller.WB_Ack  |      595759     49.82%     49.82% |      600160     50.18%    100.00% (Unspecified)
system.caches.L1Cache_Controller.WB_Ack::total      1195919                       (Unspecified)
system.caches.L1Cache_Controller.NP.Load |      621847     50.21%     50.21% |      616540     49.79%    100.00% (Unspecified)
system.caches.L1Cache_Controller.NP.Load::total      1238387                       (Unspecified)
system.caches.L1Cache_Controller.NP.Ifetch |        5954     37.30%     37.30% |       10008     62.70%    100.00% (Unspecified)
system.caches.L1Cache_Controller.NP.Ifetch::total        15962                       (Unspecified)
system.caches.L1Cache_Controller.NP.Store |       23671     43.48%     43.48% |       30769     56.52%    100.00% (Unspecified)
system.caches.L1Cache_Controller.NP.Store::total        54440                       (Unspecified)
system.caches.L1Cache_Controller.NP.Inv  |        5895     50.46%     50.46% |        5787     49.54%    100.00% (Unspecified)
system.caches.L1Cache_Controller.NP.Inv::total        11682                       (Unspecified)
system.caches.L1Cache_Controller.I.Load  |        2887     40.85%     40.85% |        4180     59.15%    100.00% (Unspecified)
system.caches.L1Cache_Controller.I.Load::total         7067                       (Unspecified)
system.caches.L1Cache_Controller.I.Ifetch |        1339     51.90%     51.90% |        1241     48.10%    100.00% (Unspecified)
system.caches.L1Cache_Controller.I.Ifetch::total         2580                       (Unspecified)
system.caches.L1Cache_Controller.I.Store |       24673     49.91%     49.91% |       24761     50.09%    100.00% (Unspecified)
system.caches.L1Cache_Controller.I.Store::total        49434                       (Unspecified)
system.caches.L1Cache_Controller.I.L1_Replacement |        5472     62.31%     62.31% |        3310     37.69%    100.00% (Unspecified)
system.caches.L1Cache_Controller.I.L1_Replacement::total         8782                       (Unspecified)
system.caches.L1Cache_Controller.S.Load  |     3805465     51.90%     51.90% |     3526227     48.10%    100.00% (Unspecified)
system.caches.L1Cache_Controller.S.Load::total      7331692                       (Unspecified)
system.caches.L1Cache_Controller.S.Ifetch |    57853851     52.45%     52.45% |    52440722     47.55%    100.00% (Unspecified)
system.caches.L1Cache_Controller.S.Ifetch::total    110294573                       (Unspecified)
system.caches.L1Cache_Controller.S.Store |        2144     36.51%     36.51% |        3729     63.49%    100.00% (Unspecified)
system.caches.L1Cache_Controller.S.Store::total         5873                       (Unspecified)
system.caches.L1Cache_Controller.S.Inv   |        8150     54.29%     54.29% |        6862     45.71%    100.00% (Unspecified)
system.caches.L1Cache_Controller.S.Inv::total        15012                       (Unspecified)
system.caches.L1Cache_Controller.S.L1_Replacement |       41546     47.92%     47.92% |       45145     52.08%    100.00% (Unspecified)
system.caches.L1Cache_Controller.S.L1_Replacement::total        86691                       (Unspecified)
system.caches.L1Cache_Controller.E.Load  |     5283036     53.21%     53.21% |     4646317     46.79%    100.00% (Unspecified)
system.caches.L1Cache_Controller.E.Load::total      9929353                       (Unspecified)
system.caches.L1Cache_Controller.E.Store |       71604     52.23%     52.23% |       65484     47.77%    100.00% (Unspecified)
system.caches.L1Cache_Controller.E.Store::total       137088                       (Unspecified)
system.caches.L1Cache_Controller.E.Inv   |         488     48.13%     48.13% |         526     51.87%    100.00% (Unspecified)
system.caches.L1Cache_Controller.E.Inv::total         1014                       (Unspecified)
system.caches.L1Cache_Controller.E.L1_Replacement |      501867     49.72%     49.72% |      507478     50.28%    100.00% (Unspecified)
system.caches.L1Cache_Controller.E.L1_Replacement::total      1009345                       (Unspecified)
system.caches.L1Cache_Controller.E.Fwd_GETX |           8     17.78%     17.78% |          37     82.22%    100.00% (Unspecified)
system.caches.L1Cache_Controller.E.Fwd_GETX::total           45                       (Unspecified)
system.caches.L1Cache_Controller.E.Fwd_GETS |        4445     47.63%     47.63% |        4888     52.37%    100.00% (Unspecified)
system.caches.L1Cache_Controller.E.Fwd_GETS::total         9333                       (Unspecified)
system.caches.L1Cache_Controller.M.Load  |      862990     41.29%     41.29% |     1227288     58.71%    100.00% (Unspecified)
system.caches.L1Cache_Controller.M.Load::total      2090278                       (Unspecified)
system.caches.L1Cache_Controller.M.Store |     1865916     47.07%     47.07% |     2097810     52.93%    100.00% (Unspecified)
system.caches.L1Cache_Controller.M.Store::total      3963726                       (Unspecified)
system.caches.L1Cache_Controller.M.Inv   |         237     49.69%     49.69% |         240     50.31%    100.00% (Unspecified)
system.caches.L1Cache_Controller.M.Inv::total          477                       (Unspecified)
system.caches.L1Cache_Controller.M.L1_Replacement |       93892     50.32%     50.32% |       92682     49.68%    100.00% (Unspecified)
system.caches.L1Cache_Controller.M.L1_Replacement::total       186574                       (Unspecified)
system.caches.L1Cache_Controller.M.Fwd_GETX |       25596     49.76%     49.76% |       25841     50.24%    100.00% (Unspecified)
system.caches.L1Cache_Controller.M.Fwd_GETX::total        51437                       (Unspecified)
system.caches.L1Cache_Controller.M.Fwd_GETS |        2238     42.00%     42.00% |        3091     58.00%    100.00% (Unspecified)
system.caches.L1Cache_Controller.M.Fwd_GETS::total         5329                       (Unspecified)
system.caches.L1Cache_Controller.IS.Data_Exclusive |      586338     50.12%     50.12% |      583575     49.88%    100.00% (Unspecified)
system.caches.L1Cache_Controller.IS.Data_Exclusive::total      1169913                       (Unspecified)
system.caches.L1Cache_Controller.IS.DataS_fromL1 |        7979     54.42%     54.42% |        6683     45.58%    100.00% (Unspecified)
system.caches.L1Cache_Controller.IS.DataS_fromL1::total        14662                       (Unspecified)
system.caches.L1Cache_Controller.IS.Data_all_Acks |       37710     47.48%     47.48% |       41711     52.52%    100.00% (Unspecified)
system.caches.L1Cache_Controller.IS.Data_all_Acks::total        79421                       (Unspecified)
system.caches.L1Cache_Controller.IM.Data |         135     15.41%     15.41% |         741     84.59%    100.00% (Unspecified)
system.caches.L1Cache_Controller.IM.Data::total          876                       (Unspecified)
system.caches.L1Cache_Controller.IM.Data_all_Acks |       48210     46.81%     46.81% |       54791     53.19%    100.00% (Unspecified)
system.caches.L1Cache_Controller.IM.Data_all_Acks::total       103001                       (Unspecified)
system.caches.L1Cache_Controller.SM.Inv  |           1     33.33%     33.33% |           2     66.67%    100.00% (Unspecified)
system.caches.L1Cache_Controller.SM.Inv::total            3                       (Unspecified)
system.caches.L1Cache_Controller.SM.Ack  |        2143     36.51%     36.51% |        3727     63.49%    100.00% (Unspecified)
system.caches.L1Cache_Controller.SM.Ack::total         5870                       (Unspecified)
system.caches.L1Cache_Controller.SM.Ack_all |        2278     33.77%     33.77% |        4468     66.23%    100.00% (Unspecified)
system.caches.L1Cache_Controller.SM.Ack_all::total         6746                       (Unspecified)
system.caches.L1Cache_Controller.M_I.WB_Ack |      595759     49.82%     49.82% |      600160     50.18%    100.00% (Unspecified)
system.caches.L1Cache_Controller.M_I.WB_Ack::total      1195919                       (Unspecified)
system.caches.Directory_Controller.Fetch      1168226      0.00%      0.00% (Unspecified)
system.caches.Directory_Controller.Data        173126      0.00%      0.00% (Unspecified)
system.caches.Directory_Controller.Memory_Data      1168226      0.00%      0.00% (Unspecified)
system.caches.Directory_Controller.Memory_Ack       173126      0.00%      0.00% (Unspecified)
system.caches.Directory_Controller.CleanReplacement       864028      0.00%      0.00% (Unspecified)
system.caches.Directory_Controller.I.Fetch      1168226      0.00%      0.00% (Unspecified)
system.caches.Directory_Controller.M.Data       173126      0.00%      0.00% (Unspecified)
system.caches.Directory_Controller.M.CleanReplacement       864028      0.00%      0.00% (Unspecified)
system.caches.Directory_Controller.IM.Memory_Data      1168226      0.00%      0.00% (Unspecified)
system.caches.Directory_Controller.MI.Memory_Ack       173126      0.00%      0.00% (Unspecified)
system.caches.L2Cache_Controller.L1_GET_INSTR |        1890     10.19%     10.19% |        2574     13.88%     24.07% |        2288     12.34%     36.41% |        1669      9.00%     45.41% |        2068     11.15%     56.56% |        2637     14.22%     70.78% |        2809     15.15%     85.93% |        2609     14.07%    100.00% (Unspecified)
system.caches.L2Cache_Controller.L1_GET_INSTR::total        18544                       (Unspecified)
system.caches.L2Cache_Controller.L1_GETS |      156809     12.59%     12.59% |      155638     12.49%     25.08% |      154715     12.42%     37.50% |      154294     12.39%     49.89% |      158334     12.71%     62.60% |      154691     12.42%     75.01% |      156005     12.52%     87.54% |      155255     12.46%    100.00% (Unspecified)
system.caches.L2Cache_Controller.L1_GETS::total      1245741                       (Unspecified)
system.caches.L2Cache_Controller.L1_GETX |       21243     20.33%     20.33% |        9506      9.10%     29.42% |       16203     15.50%     44.92% |        6462      6.18%     51.11% |       21068     20.16%     71.27% |        6891      6.59%     77.86% |       16410     15.70%     93.56% |        6729      6.44%    100.00% (Unspecified)
system.caches.L2Cache_Controller.L1_GETX::total       104512                       (Unspecified)
system.caches.L2Cache_Controller.L1_UPGRADE |         727     11.91%     11.91% |         762     12.48%     24.39% |         674     11.04%     35.42% |         685     11.22%     46.64% |         690     11.30%     57.94% |         638     10.45%     68.39% |        1285     21.04%     89.44% |         645     10.56%    100.00% (Unspecified)
system.caches.L2Cache_Controller.L1_UPGRADE::total         6106                       (Unspecified)
system.caches.L2Cache_Controller.L1_PUTX |      150254     12.56%     12.56% |      149933     12.54%     25.10% |      148972     12.46%     37.56% |      149386     12.49%     50.05% |      147296     12.32%     62.37% |      150068     12.55%     74.91% |      150022     12.54%     87.46% |      149988     12.54%    100.00% (Unspecified)
system.caches.L2Cache_Controller.L1_PUTX::total      1195919                       (Unspecified)
system.caches.L2Cache_Controller.L2_Replacement |       21692     12.56%     12.56% |       21571     12.49%     25.04% |       21604     12.50%     37.54% |       21600     12.50%     50.05% |       21554     12.48%     62.52% |       21617     12.51%     75.03% |       21541     12.47%     87.50% |       21596     12.50%    100.00% (Unspecified)
system.caches.L2Cache_Controller.L2_Replacement::total       172775                       (Unspecified)
system.caches.L2Cache_Controller.L2_Replacement_clean |      108288     12.53%     12.53% |      108107     12.51%     25.03% |      107646     12.45%     37.49% |      107917     12.48%     49.97% |      108217     12.52%     62.49% |      107966     12.49%     74.98% |      108237     12.52%     87.51% |      108001     12.49%    100.00% (Unspecified)
system.caches.L2Cache_Controller.L2_Replacement_clean::total       864379                       (Unspecified)
system.caches.L2Cache_Controller.Mem_Data |      146364     12.53%     12.53% |      146062     12.50%     25.03% |      145634     12.47%     37.50% |      145901     12.49%     49.99% |      146155     12.51%     62.50% |      145967     12.49%     74.99% |      146162     12.51%     87.50% |      145981     12.50%    100.00% (Unspecified)
system.caches.L2Cache_Controller.Mem_Data::total      1168226                       (Unspecified)
system.caches.L2Cache_Controller.Mem_Ack |      129980     12.53%     12.53% |      129678     12.50%     25.04% |      129250     12.46%     37.50% |      129517     12.49%     49.99% |      129771     12.51%     62.50% |      129583     12.49%     74.99% |      129778     12.51%     87.50% |      129597     12.50%    100.00% (Unspecified)
system.caches.L2Cache_Controller.Mem_Ack::total      1037154                       (Unspecified)
system.caches.L2Cache_Controller.WB_Data |         787     13.55%     13.55% |         719     12.38%     25.94% |         646     11.13%     37.07% |         647     11.14%     48.21% |         662     11.40%     59.61% |         628     10.82%     70.43% |        1080     18.60%     89.03% |         637     10.97%    100.00% (Unspecified)
system.caches.L2Cache_Controller.WB_Data::total         5806                       (Unspecified)
system.caches.L2Cache_Controller.WB_Data_clean |         862      9.24%      9.24% |         822      8.81%     18.04% |         871      9.33%     27.38% |         852      9.13%     36.50% |        3476     37.24%     73.75% |         823      8.82%     82.57% |         805      8.63%     91.19% |         822      8.81%    100.00% (Unspecified)
system.caches.L2Cache_Controller.WB_Data_clean::total         9333                       (Unspecified)
system.caches.L2Cache_Controller.Ack     |         834      9.62%      9.62% |         801      9.24%     18.87% |         813      9.38%     28.25% |         791      9.13%     37.38% |        3102     35.80%     73.17% |         791      9.13%     82.30% |         765      8.83%     91.13% |         769      8.87%    100.00% (Unspecified)
system.caches.L2Cache_Controller.Ack::total         8666                       (Unspecified)
system.caches.L2Cache_Controller.Ack_all |        1302     10.59%     10.59% |        1268     10.31%     20.90% |        1272     10.34%     31.24% |        1248     10.15%     41.39% |        3527     28.68%     70.06% |        1269     10.32%     80.38% |        1210      9.84%     90.22% |        1203      9.78%    100.00% (Unspecified)
system.caches.L2Cache_Controller.Ack_all::total        12299                       (Unspecified)
system.caches.L2Cache_Controller.Unblock |        1585     10.81%     10.81% |        1484     10.12%     20.93% |        1464      9.98%     30.92% |        1446      9.86%     40.78% |        4081     27.83%     68.61% |        1376      9.38%     78.00% |        1833     12.50%     90.50% |        1393      9.50%    100.00% (Unspecified)
system.caches.L2Cache_Controller.Unblock::total        14662                       (Unspecified)
system.caches.L2Cache_Controller.Exclusive_Unblock |      168363     13.16%     13.16% |      156670     12.24%     25.40% |      162420     12.69%     38.09% |      153053     11.96%     50.05% |      168003     13.13%     63.18% |      153712     12.01%     75.19% |      163829     12.80%     88.00% |      153610     12.00%    100.00% (Unspecified)
system.caches.L2Cache_Controller.Exclusive_Unblock::total      1279660                       (Unspecified)
system.caches.L2Cache_Controller.NP.L1_GET_INSTR |         762     13.01%     13.01% |         795     13.58%     26.59% |         712     12.16%     38.75% |         732     12.50%     51.25% |         714     12.19%     63.44% |         744     12.70%     76.14% |         691     11.80%     87.94% |         706     12.06%    100.00% (Unspecified)
system.caches.L2Cache_Controller.NP.L1_GET_INSTR::total         5856                       (Unspecified)
system.caches.L2Cache_Controller.NP.L1_GETS |      139742     12.53%     12.53% |      139443     12.50%     25.02% |      139098     12.47%     37.49% |      139349     12.49%     49.98% |      139613     12.51%     62.50% |      139359     12.49%     74.99% |      139646     12.52%     87.50% |      139421     12.50%    100.00% (Unspecified)
system.caches.L2Cache_Controller.NP.L1_GETS::total      1115671                       (Unspecified)
system.caches.L2Cache_Controller.NP.L1_GETX |        5860     12.55%     12.55% |        5824     12.47%     25.02% |        5824     12.47%     37.49% |        5820     12.46%     49.95% |        5828     12.48%     62.43% |        5864     12.56%     74.99% |        5825     12.47%     87.46% |        5854     12.54%    100.00% (Unspecified)
system.caches.L2Cache_Controller.NP.L1_GETX::total        46699                       (Unspecified)
system.caches.L2Cache_Controller.SS.L1_GET_INSTR |        1011      8.50%      8.50% |        1667     14.02%     22.52% |        1484     12.48%     35.00% |         859      7.22%     42.22% |        1251     10.52%     52.74% |        1786     15.02%     67.76% |        2024     17.02%     84.78% |        1810     15.22%    100.00% (Unspecified)
system.caches.L2Cache_Controller.SS.L1_GET_INSTR::total        11892                       (Unspecified)
system.caches.L2Cache_Controller.SS.L1_GETS |        8584     14.15%     14.15% |        7723     12.73%     26.87% |        7571     12.48%     39.35% |        6932     11.42%     50.77% |        7768     12.80%     63.58% |        7110     11.72%     75.29% |        7386     12.17%     87.46% |        7607     12.54%    100.00% (Unspecified)
system.caches.L2Cache_Controller.SS.L1_GETS::total        60681                       (Unspecified)
system.caches.L2Cache_Controller.SS.L1_GETX |         175     19.98%     19.98% |          94     10.73%     30.71% |          95     10.84%     41.55% |          82      9.36%     50.91% |          93     10.62%     61.53% |          91     10.39%     71.92% |         144     16.44%     88.36% |         102     11.64%    100.00% (Unspecified)
system.caches.L2Cache_Controller.SS.L1_GETX::total          876                       (Unspecified)
system.caches.L2Cache_Controller.SS.L1_UPGRADE |         725     12.35%     12.35% |         762     12.98%     25.33% |         674     11.48%     36.81% |         685     11.67%     48.48% |         690     11.75%     60.24% |         638     10.87%     71.11% |        1052     17.92%     89.03% |         644     10.97%    100.00% (Unspecified)
system.caches.L2Cache_Controller.SS.L1_UPGRADE::total         5870                       (Unspecified)
system.caches.L2Cache_Controller.SS.L2_Replacement |         221     12.51%     12.51% |         217     12.28%     24.79% |         227     12.85%     37.63% |         232     13.13%     50.76% |         218     12.34%     63.10% |         211     11.94%     75.04% |         222     12.56%     87.61% |         219     12.39%    100.00% (Unspecified)
system.caches.L2Cache_Controller.SS.L2_Replacement::total         1767                       (Unspecified)
system.caches.L2Cache_Controller.SS.L2_Replacement_clean |         936      9.83%      9.83% |         929      9.76%     19.59% |         919      9.66%     29.25% |         905      9.51%     38.76% |        3190     33.52%     72.27% |         917      9.63%     81.91% |         849      8.92%     90.83% |         873      9.17%    100.00% (Unspecified)
system.caches.L2Cache_Controller.SS.L2_Replacement_clean::total         9518                       (Unspecified)
system.caches.L2Cache_Controller.M.L1_GETS |        6871     12.64%     12.64% |        6974     12.83%     25.48% |        6569     12.09%     37.57% |        6562     12.08%     49.64% |        6851     12.61%     62.25% |        6835     12.58%     74.83% |        6855     12.61%     87.44% |        6824     12.56%    100.00% (Unspecified)
system.caches.L2Cache_Controller.M.L1_GETS::total        54341                       (Unspecified)
system.caches.L2Cache_Controller.M.L1_GETX |         685     14.21%     14.21% |         525     10.89%     25.10% |         380      7.88%     32.99% |         526     10.91%     43.90% |         507     10.52%     54.42% |         905     18.78%     73.20% |         554     11.49%     84.69% |         738     15.31%    100.00% (Unspecified)
system.caches.L2Cache_Controller.M.L1_GETX::total         4820                       (Unspecified)
system.caches.L2Cache_Controller.M.L2_Replacement |       21450     12.55%     12.55% |       21338     12.49%     25.04% |       21358     12.50%     37.54% |       21348     12.49%     50.04% |       21319     12.48%     62.52% |       21386     12.52%     75.03% |       21301     12.47%     87.50% |       21357     12.50%    100.00% (Unspecified)
system.caches.L2Cache_Controller.M.L2_Replacement::total       170857                       (Unspecified)
system.caches.L2Cache_Controller.M.L2_Replacement_clean |      107164     12.56%     12.56% |      107015     12.54%     25.09% |      106567     12.49%     37.58% |      106868     12.52%     50.10% |      104868     12.29%     62.39% |      106853     12.52%     74.91% |      107215     12.56%     87.47% |      106971     12.53%    100.00% (Unspecified)
system.caches.L2Cache_Controller.M.L2_Replacement_clean::total       853521                       (Unspecified)
system.caches.L2Cache_Controller.MT.L1_GETS |        1585     10.81%     10.81% |        1484     10.12%     20.93% |        1464      9.98%     30.92% |        1446      9.86%     40.78% |        4081     27.83%     68.61% |        1376      9.38%     78.00% |        1833     12.50%     90.50% |        1393      9.50%    100.00% (Unspecified)
system.caches.L2Cache_Controller.MT.L1_GETS::total        14662                       (Unspecified)
system.caches.L2Cache_Controller.MT.L1_GETX |       14329     27.83%     27.83% |        3062      5.95%     33.78% |        9792     19.02%     52.80% |          34      0.07%     52.87% |       14436     28.04%     80.91% |          31      0.06%     80.97% |        9763     18.96%     99.93% |          35      0.07%    100.00% (Unspecified)
system.caches.L2Cache_Controller.MT.L1_GETX::total        51482                       (Unspecified)
system.caches.L2Cache_Controller.MT.L1_PUTX |      150254     12.56%     12.56% |      149933     12.54%     25.10% |      148972     12.46%     37.56% |      149386     12.49%     50.05% |      147296     12.32%     62.37% |      150068     12.55%     74.91% |      150022     12.54%     87.46% |      149988     12.54%    100.00% (Unspecified)
system.caches.L2Cache_Controller.MT.L1_PUTX::total      1195919                       (Unspecified)
system.caches.L2Cache_Controller.MT.L2_Replacement |          21     13.91%     13.91% |          16     10.60%     24.50% |          19     12.58%     37.09% |          20     13.25%     50.33% |          17     11.26%     61.59% |          20     13.25%     74.83% |          18     11.92%     86.75% |          20     13.25%    100.00% (Unspecified)
system.caches.L2Cache_Controller.MT.L2_Replacement::total          151                       (Unspecified)
system.caches.L2Cache_Controller.MT.L2_Replacement_clean |         188     14.03%     14.03% |         163     12.16%     26.19% |         160     11.94%     38.13% |         144     10.75%     48.88% |         159     11.87%     60.75% |         196     14.63%     75.37% |         173     12.91%     88.28% |         157     11.72%    100.00% (Unspecified)
system.caches.L2Cache_Controller.MT.L2_Replacement_clean::total         1340                       (Unspecified)
system.caches.L2Cache_Controller.M_I.L1_GET_INSTR |           0      0.00%      0.00% |           0      0.00%      0.00% |           0      0.00%      0.00% |           0      0.00%      0.00% |           0      0.00%      0.00% |           0      0.00%      0.00% |           2    100.00%    100.00% |           0      0.00%    100.00% (Unspecified)
system.caches.L2Cache_Controller.M_I.L1_GET_INSTR::total            2                       (Unspecified)
system.caches.L2Cache_Controller.M_I.L1_GETX |           0      0.00%      0.00% |           0      0.00%      0.00% |           0      0.00%      0.00% |           0      0.00%      0.00% |           1    100.00%    100.00% |           0      0.00%    100.00% |           0      0.00%    100.00% |           0      0.00%    100.00% (Unspecified)
system.caches.L2Cache_Controller.M_I.L1_GETX::total            1                       (Unspecified)
system.caches.L2Cache_Controller.M_I.Mem_Ack |      129980     12.53%     12.53% |      129678     12.50%     25.04% |      129250     12.46%     37.50% |      129517     12.49%     49.99% |      129771     12.51%     62.50% |      129583     12.49%     74.99% |      129778     12.51%     87.50% |      129597     12.50%    100.00% (Unspecified)
system.caches.L2Cache_Controller.M_I.Mem_Ack::total      1037154                       (Unspecified)
system.caches.L2Cache_Controller.MT_I.WB_Data |          16     12.70%     12.70% |          12      9.52%     22.22% |          16     12.70%     34.92% |          18     14.29%     49.21% |          16     12.70%     61.90% |          16     12.70%     74.60% |          15     11.90%     86.51% |          17     13.49%    100.00% (Unspecified)
system.caches.L2Cache_Controller.MT_I.WB_Data::total          126                       (Unspecified)
system.caches.L2Cache_Controller.MT_I.Ack_all |           5     20.00%     20.00% |           4     16.00%     36.00% |           3     12.00%     48.00% |           2      8.00%     56.00% |           1      4.00%     60.00% |           4     16.00%     76.00% |           3     12.00%     88.00% |           3     12.00%    100.00% (Unspecified)
system.caches.L2Cache_Controller.MT_I.Ack_all::total           25                       (Unspecified)
system.caches.L2Cache_Controller.MCT_I.WB_Data |          48     13.68%     13.68% |          45     12.82%     26.50% |          37     10.54%     37.04% |          35      9.97%     47.01% |          41     11.68%     58.69% |          59     16.81%     75.50% |          37     10.54%     86.04% |          49     13.96%    100.00% (Unspecified)
system.caches.L2Cache_Controller.MCT_I.WB_Data::total          351                       (Unspecified)
system.caches.L2Cache_Controller.MCT_I.Ack_all |         140     14.16%     14.16% |         118     11.93%     26.09% |         123     12.44%     38.52% |         109     11.02%     49.54% |         118     11.93%     61.48% |         137     13.85%     75.33% |         136     13.75%     89.08% |         108     10.92%    100.00% (Unspecified)
system.caches.L2Cache_Controller.MCT_I.Ack_all::total          989                       (Unspecified)
system.caches.L2Cache_Controller.I_I.Ack |         613      8.89%      8.89% |         584      8.46%     17.35% |         586      8.49%     25.84% |         559      8.10%     33.95% |        2884     41.80%     75.75% |         580      8.41%     84.16% |         543      7.87%     92.03% |         550      7.97%    100.00% (Unspecified)
system.caches.L2Cache_Controller.I_I.Ack::total         6899                       (Unspecified)
system.caches.L2Cache_Controller.I_I.Ack_all |         936      9.83%      9.83% |         929      9.76%     19.59% |         919      9.66%     29.25% |         905      9.51%     38.76% |        3190     33.52%     72.27% |         917      9.63%     81.91% |         849      8.92%     90.83% |         873      9.17%    100.00% (Unspecified)
system.caches.L2Cache_Controller.I_I.Ack_all::total         9518                       (Unspecified)
system.caches.L2Cache_Controller.S_I.Ack |         221     12.51%     12.51% |         217     12.28%     24.79% |         227     12.85%     37.63% |         232     13.13%     50.76% |         218     12.34%     63.10% |         211     11.94%     75.04% |         222     12.56%     87.61% |         219     12.39%    100.00% (Unspecified)
system.caches.L2Cache_Controller.S_I.Ack::total         1767                       (Unspecified)
system.caches.L2Cache_Controller.S_I.Ack_all |         221     12.51%     12.51% |         217     12.28%     24.79% |         227     12.85%     37.63% |         232     13.13%     50.76% |         218     12.34%     63.10% |         211     11.94%     75.04% |         222     12.56%     87.61% |         219     12.39%    100.00% (Unspecified)
system.caches.L2Cache_Controller.S_I.Ack_all::total         1767                       (Unspecified)
system.caches.L2Cache_Controller.ISS.L1_GETS |          24     24.24%     24.24% |          14     14.14%     38.38% |          12     12.12%     50.51% |           5      5.05%     55.56% |          15     15.15%     70.71% |          11     11.11%     81.82% |          10     10.10%     91.92% |           8      8.08%    100.00% (Unspecified)
system.caches.L2Cache_Controller.ISS.L1_GETS::total           99                       (Unspecified)
system.caches.L2Cache_Controller.ISS.Mem_Data |      139718     12.52%     12.52% |      139429     12.50%     25.02% |      139086     12.47%     37.49% |      139344     12.49%     49.98% |      139598     12.51%     62.49% |      139348     12.49%     74.99% |      139636     12.52%     87.50% |      139413     12.50%    100.00% (Unspecified)
system.caches.L2Cache_Controller.ISS.Mem_Data::total      1115572                       (Unspecified)
system.caches.L2Cache_Controller.IS.L1_GET_INSTR |         117     14.74%     14.74% |         112     14.11%     28.84% |          92     11.59%     40.43% |          78      9.82%     50.25% |         103     12.97%     63.22% |         107     13.48%     76.70% |          92     11.59%     88.29% |          93     11.71%    100.00% (Unspecified)
system.caches.L2Cache_Controller.IS.L1_GET_INSTR::total          794                       (Unspecified)
system.caches.L2Cache_Controller.IS.Mem_Data |         786     13.20%     13.20% |         809     13.59%     26.78% |         724     12.16%     38.94% |         737     12.38%     51.32% |         729     12.24%     63.56% |         755     12.68%     76.24% |         701     11.77%     88.01% |         714     11.99%    100.00% (Unspecified)
system.caches.L2Cache_Controller.IS.Mem_Data::total         5955                       (Unspecified)
system.caches.L2Cache_Controller.IM.L1_GETX |           2     20.00%     20.00% |           1     10.00%     30.00% |           1     10.00%     40.00% |           0      0.00%     40.00% |           5     50.00%     90.00% |           0      0.00%     90.00% |           1     10.00%    100.00% |           0      0.00%    100.00% (Unspecified)
system.caches.L2Cache_Controller.IM.L1_GETX::total           10                       (Unspecified)
system.caches.L2Cache_Controller.IM.Mem_Data |        5860     12.55%     12.55% |        5824     12.47%     25.02% |        5824     12.47%     37.49% |        5820     12.46%     49.95% |        5828     12.48%     62.43% |        5864     12.56%     74.99% |        5825     12.47%     87.46% |        5854     12.54%    100.00% (Unspecified)
system.caches.L2Cache_Controller.IM.Mem_Data::total        46699                       (Unspecified)
system.caches.L2Cache_Controller.SS_MB.L1_GETS |           3      1.06%      1.06% |           0      0.00%      1.06% |           0      0.00%      1.06% |           0      0.00%      1.06% |           6      2.11%      3.17% |           0      0.00%      3.17% |         275     96.83%    100.00% |           0      0.00%    100.00% (Unspecified)
system.caches.L2Cache_Controller.SS_MB.L1_GETS::total          284                       (Unspecified)
system.caches.L2Cache_Controller.SS_MB.L1_GETX |           1    100.00%    100.00% |           0      0.00%    100.00% |           0      0.00%    100.00% |           0      0.00%    100.00% |           0      0.00%    100.00% |           0      0.00%    100.00% |           0      0.00%    100.00% |           0      0.00%    100.00% (Unspecified)
system.caches.L2Cache_Controller.SS_MB.L1_GETX::total            1                       (Unspecified)
system.caches.L2Cache_Controller.SS_MB.L1_UPGRADE |           2     66.67%     66.67% |           0      0.00%     66.67% |           0      0.00%     66.67% |           0      0.00%     66.67% |           0      0.00%     66.67% |           0      0.00%     66.67% |           0      0.00%     66.67% |           1     33.33%    100.00% (Unspecified)
system.caches.L2Cache_Controller.SS_MB.L1_UPGRADE::total            3                       (Unspecified)
system.caches.L2Cache_Controller.SS_MB.Exclusive_Unblock |         900     13.34%     13.34% |         856     12.69%     26.03% |         769     11.40%     37.43% |         767     11.37%     48.80% |         783     11.61%     60.41% |         729     10.81%     71.21% |        1196     17.73%     88.94% |         746     11.06%    100.00% (Unspecified)
system.caches.L2Cache_Controller.SS_MB.Exclusive_Unblock::total         6746                       (Unspecified)
system.caches.L2Cache_Controller.MT_MB.L1_GETS |           0      0.00%      0.00% |           0      0.00%      0.00% |           1     33.33%     33.33% |           0      0.00%     33.33% |           0      0.00%     33.33% |           0      0.00%     33.33% |           0      0.00%     33.33% |           2     66.67%    100.00% (Unspecified)
system.caches.L2Cache_Controller.MT_MB.L1_GETS::total            3                       (Unspecified)
system.caches.L2Cache_Controller.MT_MB.L1_GETX |         191     30.66%     30.66% |           0      0.00%     30.66% |         111     17.82%     48.48% |           0      0.00%     48.48% |         198     31.78%     80.26% |           0      0.00%     80.26% |         123     19.74%    100.00% |           0      0.00%    100.00% (Unspecified)
system.caches.L2Cache_Controller.MT_MB.L1_GETX::total          623                       (Unspecified)
system.caches.L2Cache_Controller.MT_MB.Exclusive_Unblock |      167463     13.16%     13.16% |      155814     12.24%     25.40% |      161651     12.70%     38.10% |      152286     11.96%     50.06% |      167220     13.14%     63.20% |      152983     12.02%     75.21% |      162633     12.78%     87.99% |      152864     12.01%    100.00% (Unspecified)
system.caches.L2Cache_Controller.MT_MB.Exclusive_Unblock::total      1272914                       (Unspecified)
system.caches.L2Cache_Controller.MT_IIB.WB_Data |         723     13.57%     13.57% |         662     12.42%     25.99% |         593     11.13%     37.12% |         594     11.15%     48.26% |         605     11.35%     59.62% |         553     10.38%     69.99% |        1028     19.29%     89.29% |         571     10.71%    100.00% (Unspecified)
system.caches.L2Cache_Controller.MT_IIB.WB_Data::total         5329                       (Unspecified)
system.caches.L2Cache_Controller.MT_IIB.WB_Data_clean |         862      9.24%      9.24% |         822      8.81%     18.04% |         871      9.33%     27.38% |         852      9.13%     36.50% |        3476     37.24%     73.75% |         823      8.82%     82.57% |         805      8.63%     91.19% |         822      8.81%    100.00% (Unspecified)
[...]
system.timingCpu0.exec_context.thread_0.statExecutedInstType::SimdSha1Hash2            0      0.00%     83.90% # Class of executed instruction. (Count)
system.timingCpu0.exec_context.thread_0.statExecutedInstType::SimdSha256Hash            0      0.00%     83.90% # Class of executed instruction. (Count)
system.timingCpu0.exec_context.thread_0.statExecutedInstType::SimdSha256Hash2            0      0.00%     83.90% # Class of executed instruction. (Count)
system.timingCpu0.exec_context.thread_0.statExecutedInstType::SimdShaSigma2            0      0.00%     83.90% # Class of executed instruction. (Count)
system.timingCpu0.exec_context.thread_0.statExecutedInstType::SimdShaSigma3            0      0.00%     83.90% # Class of executed instruction. (Count)
system.timingCpu0.exec_context.thread_0.statExecutedInstType::SimdPredAlu            0      0.00%     83.90% # Class of executed instruction. (Count)
system.timingCpu0.exec_context.thread_0.statExecutedInstType::MemRead     11193560     14.38%     98.28% # Class of executed instruction. (Count)
system.timingCpu0.exec_context.thread_0.statExecutedInstType::MemWrite      1326076      1.70%     99.99% # Class of executed instruction. (Count)
system.timingCpu0.exec_context.thread_0.statExecutedInstType::FloatMemRead         5503      0.01%     99.99% # Class of executed instruction. (Count)
system.timingCpu0.exec_context.thread_0.statExecutedInstType::FloatMemWrite         5696      0.01%    100.00% # Class of executed instruction. (Count)
system.timingCpu0.exec_context.thread_0.statExecutedInstType::IprAccess            0      0.00%    100.00% # Class of executed instruction. (Count)
system.timingCpu0.exec_context.thread_0.statExecutedInstType::InstPrefetch            0      0.00%    100.00% # Class of executed instruction. (Count)
system.timingCpu0.exec_context.thread_0.statExecutedInstType::total     77830438                       # Class of executed instruction. (Count)
system.timingCpu0.mmu.dtb.rdAccesses         11207918                       # TLB accesses on read requests (Count)
system.timingCpu0.mmu.dtb.wrAccesses          1332136                       # TLB accesses on write requests (Count)
system.timingCpu0.mmu.dtb.rdMisses               8197                       # TLB misses on read requests (Count)
system.timingCpu0.mmu.dtb.wrMisses                375                       # TLB misses on write requests (Count)
system.timingCpu0.mmu.dtb.walker.power_state.pwrStateResidencyTicks::UNDEFINED 169304533846501                       # Cumulative time (in ticks) in various power states (Tick)
system.timingCpu0.mmu.itb.rdAccesses                0                       # TLB accesses on read requests (Count)
system.timingCpu0.mmu.itb.wrAccesses         57861691                       # TLB accesses on write requests (Count)
system.timingCpu0.mmu.itb.rdMisses                  0                       # TLB misses on read requests (Count)
system.timingCpu0.mmu.itb.wrMisses                546                       # TLB misses on write requests (Count)
system.timingCpu0.mmu.itb.walker.power_state.pwrStateResidencyTicks::UNDEFINED 169304533846501                       # Cumulative time (in ticks) in various power states (Tick)
system.timingCpu0.power_state.numTransitions            4                       # Number of power state transitions (Count)
system.timingCpu0.power_state.ticksClkGated::samples            2                       # Distribution of time spent in the clock gated state (Tick)
system.timingCpu0.power_state.ticksClkGated::mean    357966500                       # Distribution of time spent in the clock gated state (Tick)
system.timingCpu0.power_state.ticksClkGated::stdev 151320144.067140                       # Distribution of time spent in the clock gated state (Tick)
system.timingCpu0.power_state.ticksClkGated::1000-5e+10            2    100.00%    100.00% # Distribution of time spent in the clock gated state (Tick)
system.timingCpu0.power_state.ticksClkGated::min_value    250967000                       # Distribution of time spent in the clock gated state (Tick)
system.timingCpu0.power_state.ticksClkGated::max_value    464966000                       # Distribution of time spent in the clock gated state (Tick)
system.timingCpu0.power_state.ticksClkGated::total            2                       # Distribution of time spent in the clock gated state (Tick)
system.timingCpu0.power_state.pwrStateResidencyTicks::ON   1068880501                       # Cumulative time (in ticks) in various power states (Tick)
system.timingCpu0.power_state.pwrStateResidencyTicks::CLK_GATED    715933000                       # Cumulative time (in ticks) in various power states (Tick)
system.timingCpu0.power_state.pwrStateResidencyTicks::OFF 169302749033000                       # Cumulative time (in ticks) in various power states (Tick)
system.timingCpu0.thread_0.numInsts                 0                       # Number of Instructions committed (Count)
system.timingCpu0.thread_0.numOps                   0                       # Number of Ops committed (Count)
system.timingCpu0.thread_0.numMemRefs               0                       # Number of Memory References (Count)
system.timingCpu1.numCycles                 399337490                       # Number of cpu cycles simulated (Cycle)
system.timingCpu1.numWorkItemsStarted               0                       # Number of work items this cpu started (Count)
system.timingCpu1.numWorkItemsCompleted             1                       # Number of work items this cpu completed (Count)
system.timingCpu1.exec_context.thread_0.numInsts     42367552                       # Number of instructions committed (Count)
system.timingCpu1.exec_context.thread_0.numOps     70252370                       # Number of ops (including micro ops) committed (Count)
system.timingCpu1.exec_context.thread_0.numIntAluAccesses     69742833                       # Number of integer alu accesses (Count)
system.timingCpu1.exec_context.thread_0.numFpAluAccesses        87362                       # Number of float alu accesses (Count)
system.timingCpu1.exec_context.thread_0.numVecAluAccesses            0                       # Number of vector alu accesses (Count)
system.timingCpu1.exec_context.thread_0.numCallsReturns        82877                       # Number of times a function call or return occured (Count)
system.timingCpu1.exec_context.thread_0.numCondCtrlInsts      8630285                       # Number of instructions that are conditional controls (Count)
system.timingCpu1.exec_context.thread_0.numIntInsts     69742833                       # Number of integer instructions (Count)
system.timingCpu1.exec_context.thread_0.numFpInsts        87362                       # Number of float instructions (Count)
system.timingCpu1.exec_context.thread_0.numVecInsts            0                       # Number of vector instructions (Count)
system.timingCpu1.exec_context.thread_0.numIntRegReads     90438499                       # Number of times the integer registers were read (Count)
system.timingCpu1.exec_context.thread_0.numIntRegWrites     50825745                       # Number of times the integer registers were written (Count)
system.timingCpu1.exec_context.thread_0.numFpRegReads        87525                       # Number of times the floating registers were read (Count)
system.timingCpu1.exec_context.thread_0.numFpRegWrites         3406                       # Number of times the floating registers were written (Count)
system.timingCpu1.exec_context.thread_0.numVecRegReads            0                       # Number of times the vector registers were read (Count)
system.timingCpu1.exec_context.thread_0.numVecRegWrites            0                       # Number of times the vector registers were written (Count)
system.timingCpu1.exec_context.thread_0.numVecPredRegReads            0                       # Number of times the predicate registers were read (Count)
system.timingCpu1.exec_context.thread_0.numVecPredRegWrites            0                       # Number of times the predicate registers were written (Count)
system.timingCpu1.exec_context.thread_0.numCCRegReads     48856058                       # Number of times the CC registers were read (Count)
system.timingCpu1.exec_context.thread_0.numCCRegWrites     34840284                       # Number of times the CC registers were written (Count)
system.timingCpu1.exec_context.thread_0.numMiscRegReads     29678464                       # Number of times the Misc registers were read (Count)
system.timingCpu1.exec_context.thread_0.numMiscRegWrites        10679                       # Number of times the Misc registers were written (Count)
system.timingCpu1.exec_context.thread_0.numMemRefs     12202681                       # Number of memory refs (Count)
system.timingCpu1.exec_context.thread_0.numLoadInsts     10648412                       # Number of load instructions (Count)
system.timingCpu1.exec_context.thread_0.numStoreInsts      1554269                       # Number of store instructions (Count)
system.timingCpu1.exec_context.thread_0.numIdleCycles            0                       # Number of idle cycles (Cycle)
system.timingCpu1.exec_context.thread_0.numBusyCycles    399337490                       # Number of busy cycles (Cycle)
system.timingCpu1.exec_context.thread_0.notIdleFraction            1                       # Percentage of non-idle cycles (Ratio)
system.timingCpu1.exec_context.thread_0.idleFraction            0                       # Percentage of idle cycles (Ratio)
system.timingCpu1.exec_context.thread_0.numBranches      8745152                       # Number of branches fetched (Count)
system.timingCpu1.exec_context.thread_0.statExecutedInstType::No_OpClass       195712      0.28%      0.28% # Class of executed instruction. (Count)
system.timingCpu1.exec_context.thread_0.statExecutedInstType::IntAlu     57832192     82.32%     82.60% # Class of executed instruction. (Count)
system.timingCpu1.exec_context.thread_0.statExecutedInstType::IntMult        13562      0.02%     82.62% # Class of executed instruction. (Count)
system.timingCpu1.exec_context.thread_0.statExecutedInstType::IntDiv         6875      0.01%     82.63% # Class of executed instruction. (Count)
system.timingCpu1.exec_context.thread_0.statExecutedInstType::FloatAdd          113      0.00%     82.63% # Class of executed instruction. (Count)
system.timingCpu1.exec_context.thread_0.statExecutedInstType::FloatCmp            0      0.00%     82.63% # Class of executed instruction. (Count)
system.timingCpu1.exec_context.thread_0.statExecutedInstType::FloatCvt           64      0.00%     82.63% # Class of executed instruction. (Count)
system.timingCpu1.exec_context.thread_0.statExecutedInstType::FloatMult            0      0.00%     82.63% # Class of executed instruction. (Count)
system.timingCpu1.exec_context.thread_0.statExecutedInstType::FloatMultAcc            0      0.00%     82.63% # Class of executed instruction. (Count)
system.timingCpu1.exec_context.thread_0.statExecutedInstType::FloatDiv            0      0.00%     82.63% # Class of executed instruction. (Count)
system.timingCpu1.exec_context.thread_0.statExecutedInstType::FloatMisc            0      0.00%     82.63% # Class of executed instruction. (Count)
system.timingCpu1.exec_context.thread_0.statExecutedInstType::FloatSqrt            0      0.00%     82.63% # Class of executed instruction. (Count)
system.timingCpu1.exec_context.thread_0.statExecutedInstType::SimdAdd           62      0.00%     82.63% # Class of executed instruction. (Count)
system.timingCpu1.exec_context.thread_0.statExecutedInstType::SimdAddAcc            0      0.00%     82.63% # Class of executed instruction. (Count)
system.timingCpu1.exec_context.thread_0.statExecutedInstType::SimdAlu          519      0.00%     82.63% # Class of executed instruction. (Count)
system.timingCpu1.exec_context.thread_0.statExecutedInstType::SimdCmp            0      0.00%     82.63% # Class of executed instruction. (Count)
system.timingCpu1.exec_context.thread_0.statExecutedInstType::SimdCvt          346      0.00%     82.63% # Class of executed instruction. (Count)
system.timingCpu1.exec_context.thread_0.statExecutedInstType::SimdMisc          606      0.00%     82.63% # Class of executed instruction. (Count)
system.timingCpu1.exec_context.thread_0.statExecutedInstType::SimdMult            0      0.00%     82.63% # Class of executed instruction. (Count)
system.timingCpu1.exec_context.thread_0.statExecutedInstType::SimdMultAcc            0      0.00%     82.63% # Class of executed instruction. (Count)
system.timingCpu1.exec_context.thread_0.statExecutedInstType::SimdShift           69      0.00%     82.63% # Class of executed instruction. (Count)
system.timingCpu1.exec_context.thread_0.statExecutedInstType::SimdShiftAcc            0      0.00%     82.63% # Class of executed instruction. (Count)
system.timingCpu1.exec_context.thread_0.statExecutedInstType::SimdDiv            0      0.00%     82.63% # Class of executed instruction. (Count)
system.timingCpu1.exec_context.thread_0.statExecutedInstType::SimdSqrt            0      0.00%     82.63% # Class of executed instruction. (Count)
system.timingCpu1.exec_context.thread_0.statExecutedInstType::SimdFloatAdd            1      0.00%     82.63% # Class of executed instruction. (Count)
system.timingCpu1.exec_context.thread_0.statExecutedInstType::SimdFloatAlu            0      0.00%     82.63% # Class of executed instruction. (Count)
system.timingCpu1.exec_context.thread_0.statExecutedInstType::SimdFloatCmp            0      0.00%     82.63% # Class of executed instruction. (Count)
system.timingCpu1.exec_context.thread_0.statExecutedInstType::SimdFloatCvt           36      0.00%     82.63% # Class of executed instruction. (Count)
system.timingCpu1.exec_context.thread_0.statExecutedInstType::SimdFloatDiv           12      0.00%     82.63% # Class of executed instruction. (Count)
system.timingCpu1.exec_context.thread_0.statExecutedInstType::SimdFloatMisc            0      0.00%     82.63% # Class of executed instruction. (Count)
system.timingCpu1.exec_context.thread_0.statExecutedInstType::SimdFloatMult            0      0.00%     82.63% # Class of executed instruction. (Count)
system.timingCpu1.exec_context.thread_0.statExecutedInstType::SimdFloatMultAcc            0      0.00%     82.63% # Class of executed instruction. (Count)
system.timingCpu1.exec_context.thread_0.statExecutedInstType::SimdFloatSqrt            0      0.00%     82.63% # Class of executed instruction. (Count)
system.timingCpu1.exec_context.thread_0.statExecutedInstType::SimdReduceAdd            0      0.00%     82.63% # Class of executed instruction. (Count)
system.timingCpu1.exec_context.thread_0.statExecutedInstType::SimdReduceAlu            0      0.00%     82.63% # Class of executed instruction. (Count)
system.timingCpu1.exec_context.thread_0.statExecutedInstType::SimdReduceCmp            0      0.00%     82.63% # Class of executed instruction. (Count)
system.timingCpu1.exec_context.thread_0.statExecutedInstType::SimdFloatReduceAdd            0      0.00%     82.63% # Class of executed instruction. (Count)
system.timingCpu1.exec_context.thread_0.statExecutedInstType::SimdFloatReduceCmp            0      0.00%     82.63% # Class of executed instruction. (Count)
system.timingCpu1.exec_context.thread_0.statExecutedInstType::SimdAes            0      0.00%     82.63% # Class of executed instruction. (Count)
system.timingCpu1.exec_context.thread_0.statExecutedInstType::SimdAesMix            0      0.00%     82.63% # Class of executed instruction. (Count)
system.timingCpu1.exec_context.thread_0.statExecutedInstType::SimdSha1Hash            0      0.00%     82.63% # Class of executed instruction. (Count)
system.timingCpu1.exec_context.thread_0.statExecutedInstType::SimdSha1Hash2            0      0.00%     82.63% # Class of executed instruction. (Count)
system.timingCpu1.exec_context.thread_0.statExecutedInstType::SimdSha256Hash            0      0.00%     82.63% # Class of executed instruction. (Count)
system.timingCpu1.exec_context.thread_0.statExecutedInstType::SimdSha256Hash2            0      0.00%     82.63% # Class of executed instruction. (Count)
system.timingCpu1.exec_context.thread_0.statExecutedInstType::SimdShaSigma2            0      0.00%     82.63% # Class of executed instruction. (Count)
system.timingCpu1.exec_context.thread_0.statExecutedInstType::SimdShaSigma3            0      0.00%     82.63% # Class of executed instruction. (Count)
system.timingCpu1.exec_context.thread_0.statExecutedInstType::SimdPredAlu            0      0.00%     82.63% # Class of executed instruction. (Count)
system.timingCpu1.exec_context.thread_0.statExecutedInstType::MemRead     10646663     15.15%     97.79% # Class of executed instruction. (Count)
system.timingCpu1.exec_context.thread_0.statExecutedInstType::MemWrite      1470659      2.09%     99.88% # Class of executed instruction. (Count)
system.timingCpu1.exec_context.thread_0.statExecutedInstType::FloatMemRead         1749      0.00%     99.88% # Class of executed instruction. (Count)
system.timingCpu1.exec_context.thread_0.statExecutedInstType::FloatMemWrite        83610      0.12%    100.00% # Class of executed instruction. (Count)
system.timingCpu1.exec_context.thread_0.statExecutedInstType::IprAccess            0      0.00%    100.00% # Class of executed instruction. (Count)
system.timingCpu1.exec_context.thread_0.statExecutedInstType::InstPrefetch            0      0.00%    100.00% # Class of executed instruction. (Count)
system.timingCpu1.exec_context.thread_0.statExecutedInstType::total     70252850                       # Class of executed instruction. (Count)
system.timingCpu1.mmu.dtb.rdAccesses         10655765                       # TLB accesses on read requests (Count)
system.timingCpu1.mmu.dtb.wrAccesses          1554375                       # TLB accesses on write requests (Count)
system.timingCpu1.mmu.dtb.rdMisses               9116                       # TLB misses on read requests (Count)
system.timingCpu1.mmu.dtb.wrMisses                734                       # TLB misses on write requests (Count)
system.timingCpu1.mmu.dtb.walker.power_state.pwrStateResidencyTicks::UNDEFINED 169304533846501                       # Cumulative time (in ticks) in various power states (Tick)
system.timingCpu1.mmu.itb.rdAccesses                0                       # TLB accesses on read requests (Count)
system.timingCpu1.mmu.itb.wrAccesses         52453211                       # TLB accesses on write requests (Count)
system.timingCpu1.mmu.itb.rdMisses                  0                       # TLB misses on read requests (Count)
system.timingCpu1.mmu.itb.wrMisses               1239                       # TLB misses on write requests (Count)
system.timingCpu1.mmu.itb.walker.power_state.pwrStateResidencyTicks::UNDEFINED 169304533846501                       # Cumulative time (in ticks) in various power states (Tick)
system.timingCpu1.power_state.pwrStateResidencyTicks::OFF 169304533846501                       # Cumulative time (in ticks) in various power states (Tick)
system.timingCpu1.thread_0.numInsts                 0                       # Number of Instructions committed (Count)
system.timingCpu1.thread_0.numOps                   0                       # Number of Ops committed (Count)
system.timingCpu1.thread_0.numMemRefs               0                       # Number of Memory References (Count)
system.workload.inst.arm                            0                       # number of arm instructions executed (Count)
system.workload.inst.quiesce                        0                       # number of quiesce instructions executed (Count)

---------- End Simulation Statistics   ----------
