
---------- Begin Simulation Statistics ----------
simSeconds                                   1.200293                       # Number of seconds simulated (Second)
simTicks                                 1200292585751                       # Number of ticks simulated (Tick)
finalTick                                165436664161251                       # Number of ticks from beginning of simulation (restored from checkpoints and never reset) (Tick)
simFreq                                  1000000000000                       # The number of ticks per simulated second ((Tick/Second))
hostSeconds                                   5431.82                       # Real time elapsed on the host (Second)
hostTickRate                                220974099                       # The number of ticks simulated per host second (ticks/s) ((Tick/Second))
hostMemory                                    7836948                       # Number of bytes of host memory used (Byte)
simInsts                                  39421877633                       # Number of instructions simulated (Count)
simOps                                    40131957102                       # Number of ops (including micro ops) simulated (Count)
hostInstRate                                  7257575                       # Simulator instruction rate (inst/s) ((Count/Second))
hostOpRate                                    7388301                       # Simulator op (including micro ops) rate (op/s) ((Count/Second))
system.work_item_type0::samples                     1                       # Run time stat forwork_item_type0 (Unspecified)
system.work_item_type0::mean             1200292585751                       # Run time stat forwork_item_type0 (Unspecified)
system.work_item_type0::gmean            1200292585751                       # Run time stat forwork_item_type0 (Unspecified)
system.work_item_type0::stdev                     nan                       # Run time stat forwork_item_type0 (Unspecified)
system.work_item_type0::0-6.87195e+10               0      0.00%      0.00% # Run time stat forwork_item_type0 (Unspecified)
system.work_item_type0::6.87195e+10-1.37439e+11            0      0.00%      0.00% # Run time stat forwork_item_type0 (Unspecified)
system.work_item_type0::1.37439e+11-2.06158e+11            0      0.00%      0.00% # Run time stat forwork_item_type0 (Unspecified)
system.work_item_type0::2.06158e+11-2.74878e+11            0      0.00%      0.00% # Run time stat forwork_item_type0 (Unspecified)
system.work_item_type0::2.74878e+11-3.43597e+11            0      0.00%      0.00% # Run time stat forwork_item_type0 (Unspecified)
system.work_item_type0::3.43597e+11-4.12317e+11            0      0.00%      0.00% # Run time stat forwork_item_type0 (Unspecified)
system.work_item_type0::4.12317e+11-4.81036e+11            0      0.00%      0.00% # Run time stat forwork_item_type0 (Unspecified)
system.work_item_type0::4.81036e+11-5.49756e+11            0      0.00%      0.00% # Run time stat forwork_item_type0 (Unspecified)
system.work_item_type0::5.49756e+11-6.18475e+11            0      0.00%      0.00% # Run time stat forwork_item_type0 (Unspecified)
system.work_item_type0::6.18475e+11-6.87195e+11            0      0.00%      0.00% # Run time stat forwork_item_type0 (Unspecified)
system.work_item_type0::6.87195e+11-7.55914e+11            0      0.00%      0.00% # Run time stat forwork_item_type0 (Unspecified)
system.work_item_type0::7.55914e+11-8.24634e+11            0      0.00%      0.00% # Run time stat forwork_item_type0 (Unspecified)
system.work_item_type0::8.24634e+11-8.93353e+11            0      0.00%      0.00% # Run time stat forwork_item_type0 (Unspecified)
system.work_item_type0::8.93353e+11-9.62073e+11            0      0.00%      0.00% # Run time stat forwork_item_type0 (Unspecified)
system.work_item_type0::9.62073e+11-1.03079e+12            0      0.00%      0.00% # Run time stat forwork_item_type0 (Unspecified)
system.work_item_type0::1.03079e+12-1.09951e+12            0      0.00%      0.00% # Run time stat forwork_item_type0 (Unspecified)
system.work_item_type0::1.09951e+12-1.16823e+12            0      0.00%      0.00% # Run time stat forwork_item_type0 (Unspecified)
system.work_item_type0::1.16823e+12-1.23695e+12            1    100.00%    100.00% # Run time stat forwork_item_type0 (Unspecified)
system.work_item_type0::1.23695e+12-1.30567e+12            0      0.00%    100.00% # Run time stat forwork_item_type0 (Unspecified)
system.work_item_type0::1.30567e+12-1.37439e+12            0      0.00%    100.00% # Run time stat forwork_item_type0 (Unspecified)
system.work_item_type0::total                       1                       # Run time stat forwork_item_type0 (Unspecified)
system.atomicCpu0.numCycles                         0                       # Number of cpu cycles simulated (Cycle)
system.atomicCpu0.numWorkItemsStarted               0                       # Number of work items this cpu started (Count)
system.atomicCpu0.numWorkItemsCompleted             0                       # Number of work items this cpu completed (Count)
system.atomicCpu0.exec_context.thread_0.numInsts            0                       # Number of instructions committed (Count)
system.atomicCpu0.exec_context.thread_0.numOps            0                       # Number of ops (including micro ops) committed (Count)
system.atomicCpu0.exec_context.thread_0.numIntAluAccesses            0                       # Number of integer alu accesses (Count)
system.atomicCpu0.exec_context.thread_0.numFpAluAccesses            0                       # Number of float alu accesses (Count)
system.atomicCpu0.exec_context.thread_0.numVecAluAccesses            0                       # Number of vector alu accesses (Count)
system.atomicCpu0.exec_context.thread_0.numCallsReturns            0                       # Number of times a function call or return occured (Count)
system.atomicCpu0.exec_context.thread_0.numCondCtrlInsts            0                       # Number of instructions that are conditional controls (Count)
system.atomicCpu0.exec_context.thread_0.numIntInsts            0                       # Number of integer instructions (Count)
system.atomicCpu0.exec_context.thread_0.numFpInsts            0                       # Number of float instructions (Count)
system.atomicCpu0.exec_context.thread_0.numVecInsts            0                       # Number of vector instructions (Count)
system.atomicCpu0.exec_context.thread_0.numIntRegReads            0                       # Number of times the integer registers were read (Count)
system.atomicCpu0.exec_context.thread_0.numIntRegWrites            0                       # Number of times the integer registers were written (Count)
system.atomicCpu0.exec_context.thread_0.numFpRegReads            0                       # Number of times the floating registers were read (Count)
system.atomicCpu0.exec_context.thread_0.numFpRegWrites            0                       # Number of times the floating registers were written (Count)
system.atomicCpu0.exec_context.thread_0.numVecRegReads            0                       # Number of times the vector registers were read (Count)
system.atomicCpu0.exec_context.thread_0.numVecRegWrites            0                       # Number of times the vector registers were written (Count)
system.atomicCpu0.exec_context.thread_0.numVecPredRegReads            0                       # Number of times the predicate registers were read (Count)
system.atomicCpu0.exec_context.thread_0.numVecPredRegWrites            0                       # Number of times the predicate registers were written (Count)
system.atomicCpu0.exec_context.thread_0.numMiscRegReads            0                       # Number of times the Misc registers were read (Count)
system.atomicCpu0.exec_context.thread_0.numMiscRegWrites            0                       # Number of times the Misc registers were written (Count)
system.atomicCpu0.exec_context.thread_0.numMemRefs            0                       # Number of memory refs (Count)
system.atomicCpu0.exec_context.thread_0.numLoadInsts            0                       # Number of load instructions (Count)
system.atomicCpu0.exec_context.thread_0.numStoreInsts            0                       # Number of store instructions (Count)
system.atomicCpu0.exec_context.thread_0.numIdleCycles            0                       # Number of idle cycles (Cycle)
system.atomicCpu0.exec_context.thread_0.numBusyCycles            0                       # Number of busy cycles (Cycle)
system.atomicCpu0.exec_context.thread_0.notIdleFraction            0                       # Percentage of non-idle cycles (Ratio)
system.atomicCpu0.exec_context.thread_0.idleFraction            1                       # Percentage of idle cycles (Ratio)
system.atomicCpu0.exec_context.thread_0.statExecutedInstType::No_OpClass            0                       # Class of executed instruction. (Count)
system.atomicCpu0.exec_context.thread_0.statExecutedInstType::IntAlu            0                       # Class of executed instruction. (Count)
system.atomicCpu0.exec_context.thread_0.statExecutedInstType::IntMult            0                       # Class of executed instruction. (Count)
system.atomicCpu0.exec_context.thread_0.statExecutedInstType::IntDiv            0                       # Class of executed instruction. (Count)
system.atomicCpu0.exec_context.thread_0.statExecutedInstType::FloatAdd            0                       # Class of executed instruction. (Count)
system.atomicCpu0.exec_context.thread_0.statExecutedInstType::FloatCmp            0                       # Class of executed instruction. (Count)
system.atomicCpu0.exec_context.thread_0.statExecutedInstType::FloatCvt            0                       # Class of executed instruction. (Count)
system.atomicCpu0.exec_context.thread_0.statExecutedInstType::FloatMult            0                       # Class of executed instruction. (Count)
system.atomicCpu0.exec_context.thread_0.statExecutedInstType::FloatMultAcc            0                       # Class of executed instruction. (Count)
system.atomicCpu0.exec_context.thread_0.statExecutedInstType::FloatDiv            0                       # Class of executed instruction. (Count)
system.atomicCpu0.exec_context.thread_0.statExecutedInstType::FloatMisc            0                       # Class of executed instruction. (Count)
system.atomicCpu0.exec_context.thread_0.statExecutedInstType::FloatSqrt            0                       # Class of executed instruction. (Count)
system.atomicCpu0.exec_context.thread_0.statExecutedInstType::SimdAdd            0                       # Class of executed instruction. (Count)
system.atomicCpu0.exec_context.thread_0.statExecutedInstType::SimdAddAcc            0                       # Class of executed instruction. (Count)
system.atomicCpu0.exec_context.thread_0.statExecutedInstType::SimdAlu            0                       # Class of executed instruction. (Count)
system.atomicCpu0.exec_context.thread_0.statExecutedInstType::SimdCmp            0                       # Class of executed instruction. (Count)
system.atomicCpu0.exec_context.thread_0.statExecutedInstType::SimdCvt            0                       # Class of executed instruction. (Count)
system.atomicCpu0.exec_context.thread_0.statExecutedInstType::SimdMisc            0                       # Class of executed instruction. (Count)
system.atomicCpu0.exec_context.thread_0.statExecutedInstType::SimdMult            0                       # Class of executed instruction. (Count)
system.atomicCpu0.exec_context.thread_0.statExecutedInstType::SimdMultAcc            0                       # Class of executed instruction. (Count)
system.atomicCpu0.exec_context.thread_0.statExecutedInstType::SimdShift            0                       # Class of executed instruction. (Count)
system.atomicCpu0.exec_context.thread_0.statExecutedInstType::SimdShiftAcc            0                       # Class of executed instruction. (Count)
system.atomicCpu0.exec_context.thread_0.statExecutedInstType::SimdDiv            0                       # Class of executed instruction. (Count)
system.atomicCpu0.exec_context.thread_0.statExecutedInstType::SimdSqrt            0                       # Class of executed instruction. (Count)
system.atomicCpu0.exec_context.thread_0.statExecutedInstType::SimdFloatAdd            0                       # Class of executed instruction. (Count)
system.atomicCpu0.exec_context.thread_0.statExecutedInstType::SimdFloatAlu            0                       # Class of executed instruction. (Count)
system.atomicCpu0.exec_context.thread_0.statExecutedInstType::SimdFloatCmp            0                       # Class of executed instruction. (Count)
system.atomicCpu0.exec_context.thread_0.statExecutedInstType::SimdFloatCvt            0                       # Class of executed instruction. (Count)
system.atomicCpu0.exec_context.thread_0.statExecutedInstType::SimdFloatDiv            0                       # Class of executed instruction. (Count)
system.atomicCpu0.exec_context.thread_0.statExecutedInstType::SimdFloatMisc            0                       # Class of executed instruction. (Count)
system.atomicCpu0.exec_context.thread_0.statExecutedInstType::SimdFloatMult            0                       # Class of executed instruction. (Count)
system.atomicCpu0.exec_context.thread_0.statExecutedInstType::SimdFloatMultAcc            0                       # Class of executed instruction. (Count)
system.atomicCpu0.exec_context.thread_0.statExecutedInstType::SimdFloatSqrt            0                       # Class of executed instruction. (Count)
system.atomicCpu0.exec_context.thread_0.statExecutedInstType::SimdReduceAdd            0                       # Class of executed instruction. (Count)
system.atomicCpu0.exec_context.thread_0.statExecutedInstType::SimdReduceAlu            0                       # Class of executed instruction. (Count)
system.atomicCpu0.exec_context.thread_0.statExecutedInstType::SimdReduceCmp            0                       # Class of executed instruction. (Count)
system.atomicCpu0.exec_context.thread_0.statExecutedInstType::SimdFloatReduceAdd            0                       # Class of executed instruction. (Count)
system.atomicCpu0.exec_context.thread_0.statExecutedInstType::SimdFloatReduceCmp            0                       # Class of executed instruction. (Count)
system.atomicCpu0.exec_context.thread_0.statExecutedInstType::SimdAes            0                       # Class of executed instruction. (Count)
system.atomicCpu0.exec_context.thread_0.statExecutedInstType::SimdAesMix            0                       # Class of executed instruction. (Count)
system.atomicCpu0.exec_context.thread_0.statExecutedInstType::SimdSha1Hash            0                       # Class of executed instruction. (Count)
system.atomicCpu0.exec_context.thread_0.statExecutedInstType::SimdSha1Hash2            0                       # Class of executed instruction. (Count)
system.atomicCpu0.exec_context.thread_0.statExecutedInstType::SimdSha256Hash            0                       # Class of executed instruction. (Count)
system.atomicCpu0.exec_context.thread_0.statExecutedInstType::SimdSha256Hash2            0                       # Class of executed instruction. (Count)
system.atomicCpu0.exec_context.thread_0.statExecutedInstType::SimdShaSigma2            0                       # Class of executed instruction. (Count)
system.atomicCpu0.exec_context.thread_0.statExecutedInstType::SimdShaSigma3            0                       # Class of executed instruction. (Count)
system.atomicCpu0.exec_context.thread_0.statExecutedInstType::SimdPredAlu            0                       # Class of executed instruction. (Count)
system.atomicCpu0.exec_context.thread_0.statExecutedInstType::MemRead            0                       # Class of executed instruction. (Count)
system.atomicCpu0.exec_context.thread_0.statExecutedInstType::MemWrite            0                       # Class of executed instruction. (Count)
system.atomicCpu0.exec_context.thread_0.statExecutedInstType::FloatMemRead            0                       # Class of executed instruction. (Count)
system.atomicCpu0.exec_context.thread_0.statExecutedInstType::FloatMemWrite            0                       # Class of executed instruction. (Count)
system.atomicCpu0.exec_context.thread_0.statExecutedInstType::IprAccess            0                       # Class of executed instruction. (Count)
system.atomicCpu0.exec_context.thread_0.statExecutedInstType::InstPrefetch            0                       # Class of executed instruction. (Count)
system.atomicCpu0.exec_context.thread_0.statExecutedInstType::total            0                       # Class of executed instruction. (Count)
system.atomicCpu0.mmu.dtb.rdAccesses                0                       # TLB accesses on read requests (Count)
system.atomicCpu0.mmu.dtb.wrAccesses                0                       # TLB accesses on write requests (Count)
system.atomicCpu0.mmu.dtb.rdMisses                  0                       # TLB misses on read requests (Count)
system.atomicCpu0.mmu.dtb.wrMisses                  0                       # TLB misses on write requests (Count)
system.atomicCpu0.mmu.dtb.walker.power_state.pwrStateResidencyTicks::UNDEFINED 165436664161251                       # Cumulative time (in ticks) in various power states (Tick)
system.atomicCpu0.mmu.itb.rdAccesses                0                       # TLB accesses on read requests (Count)
system.atomicCpu0.mmu.itb.wrAccesses                0                       # TLB accesses on write requests (Count)
system.atomicCpu0.mmu.itb.rdMisses                  0                       # TLB misses on read requests (Count)
system.atomicCpu0.mmu.itb.wrMisses                  0                       # TLB misses on write requests (Count)
system.atomicCpu0.mmu.itb.walker.power_state.pwrStateResidencyTicks::UNDEFINED 165436664161251                       # Cumulative time (in ticks) in various power states (Tick)
system.atomicCpu0.power_state.pwrStateResidencyTicks::OFF 165436664161251                       # Cumulative time (in ticks) in various power states (Tick)
system.atomicCpu0.thread_0.numInsts                 0                       # Number of Instructions committed (Count)
system.atomicCpu0.thread_0.numOps                   0                       # Number of Ops committed (Count)
system.atomicCpu0.thread_0.numMemRefs               0                       # Number of Memory References (Count)
system.atomicCpu1.numCycles                         0                       # Number of cpu cycles simulated (Cycle)
system.atomicCpu1.numWorkItemsStarted               0                       # Number of work items this cpu started (Count)
system.atomicCpu1.numWorkItemsCompleted             0                       # Number of work items this cpu completed (Count)
system.atomicCpu1.exec_context.thread_0.numInsts            0                       # Number of instructions committed (Count)
system.atomicCpu1.exec_context.thread_0.numOps            0                       # Number of ops (including micro ops) committed (Count)
system.atomicCpu1.exec_context.thread_0.numIntAluAccesses            0                       # Number of integer alu accesses (Count)
system.atomicCpu1.exec_context.thread_0.numFpAluAccesses            0                       # Number of float alu accesses (Count)
system.atomicCpu1.exec_context.thread_0.numVecAluAccesses            0                       # Number of vector alu accesses (Count)
system.atomicCpu1.exec_context.thread_0.numCallsReturns            0                       # Number of times a function call or return occured (Count)
system.atomicCpu1.exec_context.thread_0.numCondCtrlInsts            0                       # Number of instructions that are conditional controls (Count)
system.atomicCpu1.exec_context.thread_0.numIntInsts            0                       # Number of integer instructions (Count)
system.atomicCpu1.exec_context.thread_0.numFpInsts            0                       # Number of float instructions (Count)
system.atomicCpu1.exec_context.thread_0.numVecInsts            0                       # Number of vector instructions (Count)
system.atomicCpu1.exec_context.thread_0.numIntRegReads            0                       # Number of times the integer registers were read (Count)
system.atomicCpu1.exec_context.thread_0.numIntRegWrites            0                       # Number of times the integer registers were written (Count)
system.atomicCpu1.exec_context.thread_0.numFpRegReads            0                       # Number of times the floating registers were read (Count)
system.atomicCpu1.exec_context.thread_0.numFpRegWrites            0                       # Number of times the floating registers were written (Count)
system.atomicCpu1.exec_context.thread_0.numVecRegReads            0                       # Number of times the vector registers were read (Count)
system.atomicCpu1.exec_context.thread_0.numVecRegWrites            0                       # Number of times the vector registers were written (Count)
system.atomicCpu1.exec_context.thread_0.numVecPredRegReads            0                       # Number of times the predicate registers were read (Count)
system.atomicCpu1.exec_context.thread_0.numVecPredRegWrites            0                       # Number of times the predicate registers were written (Count)
system.atomicCpu1.exec_context.thread_0.numMiscRegReads            0                       # Number of times the Misc registers were read (Count)
system.atomicCpu1.exec_context.thread_0.numMiscRegWrites            0                       # Number of times the Misc registers were written (Count)
system.atomicCpu1.exec_context.thread_0.numMemRefs            0                       # Number of memory refs (Count)
system.atomicCpu1.exec_context.thread_0.numLoadInsts            0                       # Number of load instructions (Count)
system.atomicCpu1.exec_context.thread_0.numStoreInsts            0                       # Number of store instructions (Count)
system.atomicCpu1.exec_context.thread_0.numIdleCycles            0                       # Number of idle cycles (Cycle)
system.atomicCpu1.exec_context.thread_0.numBusyCycles            0                       # Number of busy cycles (Cycle)
system.atomicCpu1.exec_context.thread_0.notIdleFraction            0                       # Percentage of non-idle cycles (Ratio)
system.atomicCpu1.exec_context.thread_0.idleFraction            1                       # Percentage of idle cycles (Ratio)
system.atomicCpu1.exec_context.thread_0.statExecutedInstType::No_OpClass            0                       # Class of executed instruction. (Count)
system.atomicCpu1.exec_context.thread_0.statExecutedInstType::IntAlu            0                       # Class of executed instruction. (Count)
system.atomicCpu1.exec_context.thread_0.statExecutedInstType::IntMult            0                       # Class of executed instruction. (Count)
system.atomicCpu1.exec_context.thread_0.statExecutedInstType::IntDiv            0                       # Class of executed instruction. (Count)
system.atomicCpu1.exec_context.thread_0.statExecutedInstType::FloatAdd            0                       # Class of executed instruction. (Count)
system.atomicCpu1.exec_context.thread_0.statExecutedInstType::FloatCmp            0                       # Class of executed instruction. (Count)
system.atomicCpu1.exec_context.thread_0.statExecutedInstType::FloatCvt            0                       # Class of executed instruction. (Count)
system.atomicCpu1.exec_context.thread_0.statExecutedInstType::FloatMult            0                       # Class of executed instruction. (Count)
system.atomicCpu1.exec_context.thread_0.statExecutedInstType::FloatMultAcc            0                       # Class of executed instruction. (Count)
system.atomicCpu1.exec_context.thread_0.statExecutedInstType::FloatDiv            0                       # Class of executed instruction. (Count)
system.atomicCpu1.exec_context.thread_0.statExecutedInstType::FloatMisc            0                       # Class of executed instruction. (Count)
system.atomicCpu1.exec_context.thread_0.statExecutedInstType::FloatSqrt            0                       # Class of executed instruction. (Count)
system.atomicCpu1.exec_context.thread_0.statExecutedInstType::SimdAdd            0                       # Class of executed instruction. (Count)
system.atomicCpu1.exec_context.thread_0.statExecutedInstType::SimdAddAcc            0                       # Class of executed instruction. (Count)
system.atomicCpu1.exec_context.thread_0.statExecutedInstType::SimdAlu            0                       # Class of executed instruction. (Count)
system.atomicCpu1.exec_context.thread_0.statExecutedInstType::SimdCmp            0                       # Class of executed instruction. (Count)
system.atomicCpu1.exec_context.thread_0.statExecutedInstType::SimdCvt            0                       # Class of executed instruction. (Count)
system.atomicCpu1.exec_context.thread_0.statExecutedInstType::SimdMisc            0                       # Class of executed instruction. (Count)
system.atomicCpu1.exec_context.thread_0.statExecutedInstType::SimdMult            0                       # Class of executed instruction. (Count)
system.atomicCpu1.exec_context.thread_0.statExecutedInstType::SimdMultAcc            0                       # Class of executed instruction. (Count)
system.atomicCpu1.exec_context.thread_0.statExecutedInstType::SimdShift            0                       # Class of executed instruction. (Count)
system.atomicCpu1.exec_context.thread_0.statExecutedInstType::SimdShiftAcc            0                       # Class of executed instruction. (Count)
system.atomicCpu1.exec_context.thread_0.statExecutedInstType::SimdDiv            0                       # Class of executed instruction. (Count)
system.atomicCpu1.exec_context.thread_0.statExecutedInstType::SimdSqrt            0                       # Class of executed instruction. (Count)
system.atomicCpu1.exec_context.thread_0.statExecutedInstType::SimdFloatAdd            0                       # Class of executed instruction. (Count)
system.atomicCpu1.exec_context.thread_0.statExecutedInstType::SimdFloatAlu            0                       # Class of executed instruction. (Count)
system.atomicCpu1.exec_context.thread_0.statExecutedInstType::SimdFloatCmp            0                       # Class of executed instruction. (Count)
system.atomicCpu1.exec_context.thread_0.statExecutedInstType::SimdFloatCvt            0                       # Class of executed instruction. (Count)
system.atomicCpu1.exec_context.thread_0.statExecutedInstType::SimdFloatDiv            0                       # Class of executed instruction. (Count)
system.atomicCpu1.exec_context.thread_0.statExecutedInstType::SimdFloatMisc            0                       # Class of executed instruction. (Count)
system.atomicCpu1.exec_context.thread_0.statExecutedInstType::SimdFloatMult            0                       # Class of executed instruction. (Count)
system.atomicCpu1.exec_context.thread_0.statExecutedInstType::SimdFloatMultAcc            0                       # Class of executed instruction. (Count)
system.atomicCpu1.exec_context.thread_0.statExecutedInstType::SimdFloatSqrt            0                       # Class of executed instruction. (Count)
system.atomicCpu1.exec_context.thread_0.statExecutedInstType::SimdReduceAdd            0                       # Class of executed instruction. (Count)
system.atomicCpu1.exec_context.thread_0.statExecutedInstType::SimdReduceAlu            0                       # Class of executed instruction. (Count)
system.atomicCpu1.exec_context.thread_0.statExecutedInstType::SimdReduceCmp            0                       # Class of executed instruction. (Count)
system.atomicCpu1.exec_context.thread_0.statExecutedInstType::SimdFloatReduceAdd            0                       # Class of executed instruction. (Count)
system.atomicCpu1.exec_context.thread_0.statExecutedInstType::SimdFloatReduceCmp            0                       # Class of executed instruction. (Count)
system.atomicCpu1.exec_context.thread_0.statExecutedInstType::SimdAes            0                       # Class of executed instruction. (Count)
system.atomicCpu1.exec_context.thread_0.statExecutedInstType::SimdAesMix            0                       # Class of executed instruction. (Count)
system.atomicCpu1.exec_context.thread_0.statExecutedInstType::SimdSha1Hash            0                       # Class of executed instruction. (Count)
system.atomicCpu1.exec_context.thread_0.statExecutedInstType::SimdSha1Hash2            0                       # Class of executed instruction. (Count)
system.atomicCpu1.exec_context.thread_0.statExecutedInstType::SimdSha256Hash            0                       # Class of executed instruction. (Count)
system.atomicCpu1.exec_context.thread_0.statExecutedInstType::SimdSha256Hash2            0                       # Class of executed instruction. (Count)
system.atomicCpu1.exec_context.thread_0.statExecutedInstType::SimdShaSigma2            0                       # Class of executed instruction. (Count)
system.atomicCpu1.exec_context.thread_0.statExecutedInstType::SimdShaSigma3            0                       # Class of executed instruction. (Count)
system.atomicCpu1.exec_context.thread_0.statExecutedInstType::SimdPredAlu            0                       # Class of executed instruction. (Count)
system.atomicCpu1.exec_context.thread_0.statExecutedInstType::MemRead            0                       # Class of executed instruction. (Count)
system.atomicCpu1.exec_context.thread_0.statExecutedInstType::MemWrite            0                       # Class of executed instruction. (Count)
system.atomicCpu1.exec_context.thread_0.statExecutedInstType::FloatMemRead            0                       # Class of executed instruction. (Count)
system.atomicCpu1.exec_context.thread_0.statExecutedInstType::FloatMemWrite            0                       # Class of executed instruction. (Count)
system.atomicCpu1.exec_context.thread_0.statExecutedInstType::IprAccess            0                       # Class of executed instruction. (Count)
system.atomicCpu1.exec_context.thread_0.statExecutedInstType::InstPrefetch            0                       # Class of executed instruction. (Count)
system.atomicCpu1.exec_context.thread_0.statExecutedInstType::total            0                       # Class of executed instruction. (Count)
system.atomicCpu1.mmu.dtb.rdAccesses                0                       # TLB accesses on read requests (Count)
system.atomicCpu1.mmu.dtb.wrAccesses                0                       # TLB accesses on write requests (Count)
system.atomicCpu1.mmu.dtb.rdMisses                  0                       # TLB misses on read requests (Count)
system.atomicCpu1.mmu.dtb.wrMisses                  0                       # TLB misses on write requests (Count)
system.atomicCpu1.mmu.dtb.walker.power_state.pwrStateResidencyTicks::UNDEFINED 165436664161251                       # Cumulative time (in ticks) in various power states (Tick)
system.atomicCpu1.mmu.itb.rdAccesses                0                       # TLB accesses on read requests (Count)
system.atomicCpu1.mmu.itb.wrAccesses                0                       # TLB accesses on write requests (Count)
system.atomicCpu1.mmu.itb.rdMisses                  0                       # TLB misses on read requests (Count)
system.atomicCpu1.mmu.itb.wrMisses                  0                       # TLB misses on write requests (Count)
system.atomicCpu1.mmu.itb.walker.power_state.pwrStateResidencyTicks::UNDEFINED 165436664161251                       # Cumulative time (in ticks) in various power states (Tick)
system.atomicCpu1.power_state.pwrStateResidencyTicks::OFF 165436664161251                       # Cumulative time (in ticks) in various power states (Tick)
system.atomicCpu1.thread_0.numInsts                 0                       # Number of Instructions committed (Count)
system.atomicCpu1.thread_0.numOps                   0                       # Number of Ops committed (Count)
system.atomicCpu1.thread_0.numMemRefs               0                       # Number of Memory References (Count)
system.caches.delayHistogram::bucket_size           32                       # delay histogram for all message (Unspecified)
system.caches.delayHistogram::max_bucket          319                       # delay histogram for all message (Unspecified)
system.caches.delayHistogram::samples       227505883                       # delay histogram for all message (Unspecified)
system.caches.delayHistogram::mean           0.336060                       # delay histogram for all message (Unspecified)
system.caches.delayHistogram::stdev          1.611519                       # delay histogram for all message (Unspecified)
system.caches.delayHistogram             |   227505856    100.00%    100.00% |          16      0.00%    100.00% |           8      0.00%    100.00% |           0      0.00%    100.00% |           0      0.00%    100.00% |           1      0.00%    100.00% |           0      0.00%    100.00% |           1      0.00%    100.00% |           1      0.00%    100.00% |           0      0.00%    100.00% # delay histogram for all message (Unspecified)
system.caches.delayHistogram::total         227505883                       # delay histogram for all message (Unspecified)
system.caches.m_outstandReqHistSeqr::bucket_size            1                       (Unspecified)
system.caches.m_outstandReqHistSeqr::max_bucket            9                       (Unspecified)
system.caches.m_outstandReqHistSeqr::samples   1840289358                       (Unspecified)
system.caches.m_outstandReqHistSeqr::mean     1.000040                       (Unspecified)
system.caches.m_outstandReqHistSeqr::gmean     1.000027                       (Unspecified)
system.caches.m_outstandReqHistSeqr::stdev     0.006290                       (Unspecified)
system.caches.m_outstandReqHistSeqr      |           0      0.00%      0.00% |  1840216536    100.00%    100.00% |       72822      0.00%    100.00% |           0      0.00%    100.00% |           0      0.00%    100.00% |           0      0.00%    100.00% |           0      0.00%    100.00% |           0      0.00%    100.00% |           0      0.00%    100.00% |           0      0.00%    100.00% (Unspecified)
system.caches.m_outstandReqHistSeqr::total   1840289358                       (Unspecified)
system.caches.m_latencyHistSeqr::bucket_size          512                       (Unspecified)
system.caches.m_latencyHistSeqr::max_bucket         5119                       (Unspecified)
system.caches.m_latencyHistSeqr::samples   1840289357                       (Unspecified)
system.caches.m_latencyHistSeqr::mean        4.190781                       (Unspecified)
system.caches.m_latencyHistSeqr::gmean       1.103985                       (Unspecified)
system.caches.m_latencyHistSeqr::stdev      38.810902                       (Unspecified)
system.caches.m_latencyHistSeqr          |  1838272548     99.89%     99.89% |     1743620      0.09%     99.99% |      108435      0.01%     99.99% |      158208      0.01%    100.00% |        6363      0.00%    100.00% |         168      0.00%    100.00% |          14      0.00%    100.00% |           1      0.00%    100.00% |           0      0.00%    100.00% |           0      0.00%    100.00% (Unspecified)
system.caches.m_latencyHistSeqr::total     1840289357                       (Unspecified)
system.caches.m_hitLatencyHistSeqr::bucket_size            1                       (Unspecified)
system.caches.m_hitLatencyHistSeqr::max_bucket            9                       (Unspecified)
system.caches.m_hitLatencyHistSeqr::samples   1787257281                       (Unspecified)
system.caches.m_hitLatencyHistSeqr::mean            1                       (Unspecified)
system.caches.m_hitLatencyHistSeqr::gmean            1                       (Unspecified)
system.caches.m_hitLatencyHistSeqr       |           0      0.00%      0.00% |  1787257281    100.00%    100.00% |           0      0.00%    100.00% |           0      0.00%    100.00% |           0      0.00%    100.00% |           0      0.00%    100.00% |           0      0.00%    100.00% |           0      0.00%    100.00% |           0      0.00%    100.00% |           0      0.00%    100.00% (Unspecified)
system.caches.m_hitLatencyHistSeqr::total   1787257281                       (Unspecified)
system.caches.m_missLatencyHistSeqr::bucket_size          512                       (Unspecified)
system.caches.m_missLatencyHistSeqr::max_bucket         5119                       (Unspecified)
system.caches.m_missLatencyHistSeqr::samples     53032076                       (Unspecified)
system.caches.m_missLatencyHistSeqr::mean   111.724676                       (Unspecified)
system.caches.m_missLatencyHistSeqr::gmean    30.965979                       (Unspecified)
system.caches.m_missLatencyHistSeqr::stdev   200.907046                       (Unspecified)
system.caches.m_missLatencyHistSeqr      |    51015267     96.20%     96.20% |     1743620      3.29%     99.48% |      108435      0.20%     99.69% |      158208      0.30%     99.99% |        6363      0.01%    100.00% |         168      0.00%    100.00% |          14      0.00%    100.00% |           1      0.00%    100.00% |           0      0.00%    100.00% |           0      0.00%    100.00% (Unspecified)
system.caches.m_missLatencyHistSeqr::total     53032076                       (Unspecified)
system.caches.delayVCHist.vnet_0::bucket_size           32                       # delay histogram for vnet_0 (Unspecified)
system.caches.delayVCHist.vnet_0::max_bucket          319                       # delay histogram for vnet_0 (Unspecified)
system.caches.delayVCHist.vnet_0::samples    113114829                       # delay histogram for vnet_0 (Unspecified)
system.caches.delayVCHist.vnet_0::mean       0.675100                       # delay histogram for vnet_0 (Unspecified)
system.caches.delayVCHist.vnet_0::stdev      2.233854                       # delay histogram for vnet_0 (Unspecified)
system.caches.delayVCHist.vnet_0         |   113114802    100.00%    100.00% |          16      0.00%    100.00% |           8      0.00%    100.00% |           0      0.00%    100.00% |           0      0.00%    100.00% |           1      0.00%    100.00% |           0      0.00%    100.00% |           1      0.00%    100.00% |           1      0.00%    100.00% |           0      0.00%    100.00% # delay histogram for vnet_0 (Unspecified)
system.caches.delayVCHist.vnet_0::total     113114829                       # delay histogram for vnet_0 (Unspecified)
system.caches.delayVCHist.vnet_1::bucket_size            2                       # delay histogram for vnet_1 (Unspecified)
system.caches.delayVCHist.vnet_1::max_bucket           19                       # delay histogram for vnet_1 (Unspecified)
system.caches.delayVCHist.vnet_1::samples    110602129                       # delay histogram for vnet_1 (Unspecified)
system.caches.delayVCHist.vnet_1::mean       0.000818                       # delay histogram for vnet_1 (Unspecified)
system.caches.delayVCHist.vnet_1::stdev      0.068206                       # delay histogram for vnet_1 (Unspecified)
system.caches.delayVCHist.vnet_1         |   110582029     99.98%     99.98% |        7328      0.01%     99.99% |        4540      0.00%     99.99% |        4095      0.00%    100.00% |        4124      0.00%    100.00% |          13      0.00%    100.00% |           0      0.00%    100.00% |           0      0.00%    100.00% |           0      0.00%    100.00% |           0      0.00%    100.00% # delay histogram for vnet_1 (Unspecified)
system.caches.delayVCHist.vnet_1::total     110602129                       # delay histogram for vnet_1 (Unspecified)
system.caches.delayVCHist.vnet_2::bucket_size            1                       # delay histogram for vnet_2 (Unspecified)
system.caches.delayVCHist.vnet_2::max_bucket            9                       # delay histogram for vnet_2 (Unspecified)
system.caches.delayVCHist.vnet_2::samples      3788925                       # delay histogram for vnet_2 (Unspecified)
system.caches.delayVCHist.vnet_2::mean       0.000326                       # delay histogram for vnet_2 (Unspecified)
system.caches.delayVCHist.vnet_2::stdev      0.025541                       # delay histogram for vnet_2 (Unspecified)
system.caches.delayVCHist.vnet_2         |     3788307     99.98%     99.98% |           0      0.00%     99.98% |         618      0.02%    100.00% |           0      0.00%    100.00% |           0      0.00%    100.00% |           0      0.00%    100.00% |           0      0.00%    100.00% |           0      0.00%    100.00% |           0      0.00%    100.00% |           0      0.00%    100.00% # delay histogram for vnet_2 (Unspecified)
system.caches.delayVCHist.vnet_2::total       3788925                       # delay histogram for vnet_2 (Unspecified)
system.caches.L1Cache_Controller.Load    |   152265439     50.01%     50.01% |   152178381     49.99%    100.00% (Unspecified)
system.caches.L1Cache_Controller.Load::total    304443820                       (Unspecified)
system.caches.L1Cache_Controller.Ifetch  |   743661533     50.01%     50.01% |   743360803     49.99%    100.00% (Unspecified)
system.caches.L1Cache_Controller.Ifetch::total   1487022336                       (Unspecified)
system.caches.L1Cache_Controller.Store   |    25182623     51.58%     51.58% |    23640578     48.42%    100.00% (Unspecified)
system.caches.L1Cache_Controller.Store::total     48823201                       (Unspecified)
system.caches.L1Cache_Controller.Inv     |     1123389     49.88%     49.88% |     1128600     50.12%    100.00% (Unspecified)
system.caches.L1Cache_Controller.Inv::total      2251989                       (Unspecified)
system.caches.L1Cache_Controller.L1_Replacement |    26081491     50.05%     50.05% |    26027183     49.95%    100.00% (Unspecified)
system.caches.L1Cache_Controller.L1_Replacement::total     52108674                       (Unspecified)
system.caches.L1Cache_Controller.Fwd_GETX |       17106     49.36%     49.36% |       17549     50.64%    100.00% (Unspecified)
system.caches.L1Cache_Controller.Fwd_GETX::total        34655                       (Unspecified)
system.caches.L1Cache_Controller.Fwd_GETS |      756903     50.38%     50.38% |      745378     49.62%    100.00% (Unspecified)
system.caches.L1Cache_Controller.Fwd_GETS::total      1502281                       (Unspecified)
system.caches.L1Cache_Controller.Data    |        6720     60.38%     60.38% |        4409     39.62%    100.00% (Unspecified)
system.caches.L1Cache_Controller.Data::total        11129                       (Unspecified)
system.caches.L1Cache_Controller.Data_Exclusive |    14011928     49.92%     49.92% |    14058252     50.08%    100.00% (Unspecified)
system.caches.L1Cache_Controller.Data_Exclusive::total     28070180                       (Unspecified)
system.caches.L1Cache_Controller.DataS_fromL1 |      745378     49.62%     49.62% |      756903     50.38%    100.00% (Unspecified)
system.caches.L1Cache_Controller.DataS_fromL1::total      1502281                       (Unspecified)
system.caches.L1Cache_Controller.Data_all_Acks |    11393002     50.24%     50.24% |    11285486     49.76%    100.00% (Unspecified)
system.caches.L1Cache_Controller.Data_all_Acks::total     22678488                       (Unspecified)
system.caches.L1Cache_Controller.Ack     |      387491     50.32%     50.32% |      382507     49.68%    100.00% (Unspecified)
system.caches.L1Cache_Controller.Ack::total       769998                       (Unspecified)
system.caches.L1Cache_Controller.Ack_all |      394211     50.47%     50.47% |      386916     49.53%    100.00% (Unspecified)
system.caches.L1Cache_Controller.Ack_all::total       781127                       (Unspecified)
system.caches.L1Cache_Controller.WB_Ack  |    14290212     50.12%     50.12% |    14220137     49.88%    100.00% (Unspecified)
system.caches.L1Cache_Controller.WB_Ack::total     28510349                       (Unspecified)
system.caches.L1Cache_Controller.NP.Load |    25378487     49.91%     49.91% |    25467545     50.09%    100.00% (Unspecified)
system.caches.L1Cache_Controller.NP.Load::total     50846032                       (Unspecified)
system.caches.L1Cache_Controller.NP.Ifetch |       47115     68.11%     68.11% |       22062     31.89%    100.00% (Unspecified)
system.caches.L1Cache_Controller.NP.Ifetch::total        69177                       (Unspecified)
system.caches.L1Cache_Controller.NP.Store |      664592     54.89%     54.89% |      546277     45.11%    100.00% (Unspecified)
system.caches.L1Cache_Controller.NP.Store::total      1210869                       (Unspecified)
system.caches.L1Cache_Controller.NP.Inv  |      768635     50.01%     50.01% |      768426     49.99%    100.00% (Unspecified)
system.caches.L1Cache_Controller.NP.Inv::total      1537061                       (Unspecified)
system.caches.L1Cache_Controller.I.Load  |       31601     45.48%     45.48% |       37880     54.52%    100.00% (Unspecified)
system.caches.L1Cache_Controller.I.Load::total        69481                       (Unspecified)
system.caches.L1Cache_Controller.I.Ifetch |       25672     54.11%     54.11% |       21771     45.89%    100.00% (Unspecified)
system.caches.L1Cache_Controller.I.Ifetch::total        47443                       (Unspecified)
system.caches.L1Cache_Controller.I.Store |        9561     50.22%     50.22% |        9476     49.78%    100.00% (Unspecified)
system.caches.L1Cache_Controller.I.Store::total        19037                       (Unspecified)
system.caches.L1Cache_Controller.I.L1_Replacement |      305004     49.73%     49.73% |      308353     50.27%    100.00% (Unspecified)
system.caches.L1Cache_Controller.I.L1_Replacement::total       613357                       (Unspecified)
system.caches.L1Cache_Controller.S.Load  |    65878103     50.02%     50.02% |    65816757     49.98%    100.00% (Unspecified)
system.caches.L1Cache_Controller.S.Load::total    131694860                       (Unspecified)
system.caches.L1Cache_Controller.S.Ifetch |   743588746     50.01%     50.01% |   743316970     49.99%    100.00% (Unspecified)
system.caches.L1Cache_Controller.S.Ifetch::total   1486905716                       (Unspecified)
system.caches.L1Cache_Controller.S.Store |      387491     50.32%     50.32% |      382546     49.68%    100.00% (Unspecified)
system.caches.L1Cache_Controller.S.Store::total       770037                       (Unspecified)
system.caches.L1Cache_Controller.S.Inv   |      353460     49.91%     49.91% |      354717     50.09%    100.00% (Unspecified)
system.caches.L1Cache_Controller.S.Inv::total       708177                       (Unspecified)
system.caches.L1Cache_Controller.S.L1_Replacement |    11486275     49.97%     49.97% |    11498693     50.03%    100.00% (Unspecified)
system.caches.L1Cache_Controller.S.L1_Replacement::total     22984968                       (Unspecified)
system.caches.L1Cache_Controller.E.Load  |    47021000     49.64%     49.64% |    47703063     50.36%    100.00% (Unspecified)
system.caches.L1Cache_Controller.E.Load::total     94724063                       (Unspecified)
system.caches.L1Cache_Controller.E.Store |     4067141     50.03%     50.03% |     4061508     49.97%    100.00% (Unspecified)
system.caches.L1Cache_Controller.E.Store::total      8128649                       (Unspecified)
system.caches.L1Cache_Controller.E.Inv   |         675     48.01%     48.01% |         731     51.99%    100.00% (Unspecified)
system.caches.L1Cache_Controller.E.Inv::total         1406                       (Unspecified)
system.caches.L1Cache_Controller.E.L1_Replacement |     9520092     49.86%     49.86% |     9573984     50.14%    100.00% (Unspecified)
system.caches.L1Cache_Controller.E.L1_Replacement::total     19094076                       (Unspecified)
system.caches.L1Cache_Controller.E.Fwd_GETX |        1482     42.66%     42.66% |        1992     57.34%    100.00% (Unspecified)
system.caches.L1Cache_Controller.E.Fwd_GETX::total         3474                       (Unspecified)
system.caches.L1Cache_Controller.E.Fwd_GETS |      422200     50.13%     50.13% |      419985     49.87%    100.00% (Unspecified)
system.caches.L1Cache_Controller.E.Fwd_GETS::total       842185                       (Unspecified)
system.caches.L1Cache_Controller.M.Load  |    13956248     51.48%     51.48% |    13153136     48.52%    100.00% (Unspecified)
system.caches.L1Cache_Controller.M.Load::total     27109384                       (Unspecified)
system.caches.L1Cache_Controller.M.Store |    20053838     51.83%     51.83% |    18640771     48.17%    100.00% (Unspecified)
system.caches.L1Cache_Controller.M.Store::total     38694609                       (Unspecified)
system.caches.L1Cache_Controller.M.Inv   |         619     11.67%     11.67% |        4686     88.33%    100.00% (Unspecified)
system.caches.L1Cache_Controller.M.Inv::total         5305                       (Unspecified)
system.caches.L1Cache_Controller.M.L1_Replacement |     4770120     50.66%     50.66% |     4646153     49.34%    100.00% (Unspecified)
system.caches.L1Cache_Controller.M.L1_Replacement::total      9416273                       (Unspecified)
system.caches.L1Cache_Controller.M.Fwd_GETX |       15623     50.11%     50.11% |       15557     49.89%    100.00% (Unspecified)
system.caches.L1Cache_Controller.M.Fwd_GETX::total        31180                       (Unspecified)
system.caches.L1Cache_Controller.M.Fwd_GETS |      334699     50.71%     50.71% |      325385     49.29%    100.00% (Unspecified)
system.caches.L1Cache_Controller.M.Fwd_GETS::total       660084                       (Unspecified)
system.caches.L1Cache_Controller.IS.Inv  |           0      0.00%      0.00% |           1    100.00%    100.00% (Unspecified)
system.caches.L1Cache_Controller.IS.Inv::total            1                       (Unspecified)
system.caches.L1Cache_Controller.IS.Data_Exclusive |    14011928     49.92%     49.92% |    14058252     50.08%    100.00% (Unspecified)
system.caches.L1Cache_Controller.IS.Data_Exclusive::total     28070180                       (Unspecified)
system.caches.L1Cache_Controller.IS.DataS_fromL1 |      745378     49.62%     49.62% |      756902     50.38%    100.00% (Unspecified)
system.caches.L1Cache_Controller.IS.DataS_fromL1::total      1502280                       (Unspecified)
system.caches.L1Cache_Controller.IS.Data_all_Acks |    10725569     49.98%     49.98% |    10734103     50.02%    100.00% (Unspecified)
system.caches.L1Cache_Controller.IS.Data_all_Acks::total     21459672                       (Unspecified)
system.caches.L1Cache_Controller.IM.Data |        6720     60.38%     60.38% |        4409     39.62%    100.00% (Unspecified)
system.caches.L1Cache_Controller.IM.Data::total        11129                       (Unspecified)
system.caches.L1Cache_Controller.IM.Data_all_Acks |      667433     54.76%     54.76% |      551383     45.24%    100.00% (Unspecified)
system.caches.L1Cache_Controller.IM.Data_all_Acks::total      1218816                       (Unspecified)
system.caches.L1Cache_Controller.SM.Inv  |           0      0.00%      0.00% |          39    100.00%    100.00% (Unspecified)
system.caches.L1Cache_Controller.SM.Inv::total           39                       (Unspecified)
system.caches.L1Cache_Controller.SM.Ack  |      387491     50.32%     50.32% |      382507     49.68%    100.00% (Unspecified)
system.caches.L1Cache_Controller.SM.Ack::total       769998                       (Unspecified)
system.caches.L1Cache_Controller.SM.Ack_all |      394211     50.47%     50.47% |      386916     49.53%    100.00% (Unspecified)
system.caches.L1Cache_Controller.SM.Ack_all::total       781127                       (Unspecified)
system.caches.L1Cache_Controller.IS_I.DataS_fromL1 |           0      0.00%      0.00% |           1    100.00%    100.00% (Unspecified)
system.caches.L1Cache_Controller.IS_I.DataS_fromL1::total            1                       (Unspecified)
system.caches.L1Cache_Controller.M_I.Fwd_GETX |           1    100.00%    100.00% |           0      0.00%    100.00% (Unspecified)
system.caches.L1Cache_Controller.M_I.Fwd_GETX::total            1                       (Unspecified)
system.caches.L1Cache_Controller.M_I.Fwd_GETS |           4     33.33%     33.33% |           8     66.67%    100.00% (Unspecified)
system.caches.L1Cache_Controller.M_I.Fwd_GETS::total           12                       (Unspecified)
system.caches.L1Cache_Controller.M_I.WB_Ack |    14290207     50.12%     50.12% |    14220129     49.88%    100.00% (Unspecified)
system.caches.L1Cache_Controller.M_I.WB_Ack::total     28510336                       (Unspecified)
system.caches.L1Cache_Controller.SINK_WB_ACK.WB_Ack |           5     38.46%     38.46% |           8     61.54%    100.00% (Unspecified)
system.caches.L1Cache_Controller.SINK_WB_ACK.WB_Ack::total           13                       (Unspecified)
system.caches.Directory_Controller.Fetch     12718253      0.00%      0.00% (Unspecified)
system.caches.Directory_Controller.Data       3643953      0.00%      0.00% (Unspecified)
system.caches.Directory_Controller.Memory_Data     12718253      0.00%      0.00% (Unspecified)
system.caches.Directory_Controller.Memory_Ack      3643953      0.00%      0.00% (Unspecified)
system.caches.Directory_Controller.CleanReplacement      8943228      0.00%      0.00% (Unspecified)
system.caches.Directory_Controller.I.Fetch     12718253      0.00%      0.00% (Unspecified)
system.caches.Directory_Controller.M.Data      3643953      0.00%      0.00% (Unspecified)
system.caches.Directory_Controller.M.CleanReplacement      8943228      0.00%      0.00% (Unspecified)
system.caches.Directory_Controller.IM.Memory_Data     12718253      0.00%      0.00% (Unspecified)
system.caches.Directory_Controller.MI.Memory_Ack      3643953      0.00%      0.00% (Unspecified)
system.caches.L2Cache_Controller.L1_GET_INSTR |        8957      7.67%      7.67% |       17091     14.64%     22.32% |       18259     15.65%     37.96% |        6819      5.84%     43.81% |       13084     11.21%     55.02% |       16350     14.01%     69.03% |       18496     15.85%     84.88% |       17650     15.12%    100.00% (Unspecified)
system.caches.L2Cache_Controller.L1_GET_INSTR::total       116706                       (Unspecified)
system.caches.L2Cache_Controller.L1_GETS |     6380880     12.53%     12.53% |     6322292     12.42%     24.95% |     6376018     12.52%     37.47% |     6368222     12.51%     49.98% |     6444321     12.66%     62.63% |     6379271     12.53%     75.16% |     6290547     12.35%     87.52% |     6357165     12.48%    100.00% (Unspecified)
system.caches.L2Cache_Controller.L1_GETS::total     50918716                       (Unspecified)
system.caches.L2Cache_Controller.L1_GETX |      154043     12.52%     12.52% |      156616     12.73%     25.26% |      145567     11.84%     37.09% |      162607     13.22%     50.31% |      147767     12.01%     62.33% |      157490     12.80%     75.13% |      153218     12.46%     87.59% |      152655     12.41%    100.00% (Unspecified)
system.caches.L2Cache_Controller.L1_GETX::total      1229963                       (Unspecified)
system.caches.L2Cache_Controller.L1_UPGRADE |       93534     12.11%     12.11% |       99200     12.84%     24.94% |       99168     12.83%     37.78% |       97067     12.56%     50.34% |       94509     12.23%     62.57% |       92804     12.01%     74.58% |      102206     13.23%     87.81% |       94174     12.19%    100.00% (Unspecified)
system.caches.L2Cache_Controller.L1_UPGRADE::total       772662                       (Unspecified)
system.caches.L2Cache_Controller.L1_PUTX |     3581592     12.56%     12.56% |     3569519     12.52%     25.08% |     3553257     12.46%     37.55% |     3573797     12.54%     50.08% |     3565610     12.51%     62.59% |     3567004     12.51%     75.10% |     3538588     12.41%     87.51% |     3560994     12.49%    100.00% (Unspecified)
system.caches.L2Cache_Controller.L1_PUTX::total     28510361                       (Unspecified)
system.caches.L2Cache_Controller.L1_PUTX_old |           1    100.00%    100.00% |           0      0.00%    100.00% |           0      0.00%    100.00% |           0      0.00%    100.00% |           0      0.00%    100.00% |           0      0.00%    100.00% |           0      0.00%    100.00% |           0      0.00%    100.00% (Unspecified)
system.caches.L2Cache_Controller.L1_PUTX_old::total            1                       (Unspecified)
system.caches.L2Cache_Controller.L2_Replacement |      456314     12.54%     12.54% |      452945     12.45%     24.99% |      454956     12.50%     37.49% |      456643     12.55%     50.04% |      454903     12.50%     62.54% |      454703     12.49%     75.03% |      452830     12.44%     87.47% |      455803     12.53%    100.00% (Unspecified)
system.caches.L2Cache_Controller.L2_Replacement::total      3639097                       (Unspecified)
system.caches.L2Cache_Controller.L2_Replacement_clean |     1123224     12.55%     12.55% |     1116689     12.48%     25.03% |     1118326     12.50%     37.53% |     1119969     12.52%     50.05% |     1117960     12.49%     62.54% |     1115677     12.47%     75.01% |     1117072     12.48%     87.49% |     1119167     12.51%    100.00% (Unspecified)
system.caches.L2Cache_Controller.L2_Replacement_clean::total      8948084                       (Unspecified)
system.caches.L2Cache_Controller.Mem_Data |     1595922     12.55%     12.55% |     1586018     12.47%     25.02% |     1589666     12.50%     37.52% |     1592996     12.53%     50.04% |     1589247     12.50%     62.54% |     1586764     12.48%     75.02% |     1586286     12.47%     87.49% |     1591354     12.51%    100.00% (Unspecified)
system.caches.L2Cache_Controller.Mem_Data::total     12718253                       (Unspecified)
system.caches.L2Cache_Controller.Mem_Ack |     1579538     12.55%     12.55% |     1569634     12.47%     25.02% |     1573282     12.50%     37.52% |     1576612     12.53%     50.04% |     1572863     12.50%     62.54% |     1570380     12.48%     75.02% |     1569902     12.47%     87.49% |     1574970     12.51%    100.00% (Unspecified)
system.caches.L2Cache_Controller.Mem_Ack::total     12587181                       (Unspecified)
system.caches.L2Cache_Controller.WB_Data |       81797     12.29%     12.29% |       85664     12.87%     25.17% |       85510     12.85%     38.02% |       83735     12.58%     50.60% |       81201     12.20%     62.81% |       79392     11.93%     74.74% |       87405     13.14%     87.87% |       80687     12.13%    100.00% (Unspecified)
system.caches.L2Cache_Controller.WB_Data::total       665391                       (Unspecified)
system.caches.L2Cache_Controller.WB_Data_clean |      103942     12.34%     12.34% |      103522     12.29%     24.63% |      112510     13.36%     37.99% |      102692     12.19%     50.19% |      102006     12.11%     62.30% |      101813     12.09%     74.39% |      112164     13.32%     87.71% |      103546     12.29%    100.00% (Unspecified)
system.caches.L2Cache_Controller.WB_Data_clean::total       842195                       (Unspecified)
system.caches.L2Cache_Controller.Ack     |       90079     12.38%     12.38% |       89283     12.27%     24.66% |       97650     13.42%     38.08% |       87995     12.10%     50.18% |       87802     12.07%     62.25% |       87406     12.02%     74.26% |       98194     13.50%     87.76% |       89019     12.24%    100.00% (Unspecified)
system.caches.L2Cache_Controller.Ack::total       727428                       (Unspecified)
system.caches.L2Cache_Controller.Ack_all |       91687     12.42%     12.42% |       90837     12.31%     24.73% |       98918     13.40%     38.13% |       89327     12.10%     50.23% |       88962     12.05%     62.28% |       88608     12.00%     74.29% |       99210     13.44%     87.73% |       90580     12.27%    100.00% (Unspecified)
system.caches.L2Cache_Controller.Ack_all::total       738129                       (Unspecified)
system.caches.L2Cache_Controller.Unblock |      184920     12.31%     12.31% |      188546     12.55%     24.86% |      197433     13.14%     38.00% |      185802     12.37%     50.37% |      182567     12.15%     62.52% |      180528     12.02%     74.54% |      198971     13.24%     87.78% |      183514     12.22%    100.00% (Unspecified)
system.caches.L2Cache_Controller.Unblock::total      1502281                       (Unspecified)
system.caches.L2Cache_Controller.Exclusive_Unblock |     3772055     12.54%     12.54% |     3770093     12.54%     25.08% |     3755210     12.49%     37.57% |     3775849     12.56%     50.13% |     3752911     12.48%     62.61% |     3752348     12.48%     75.09% |     3742210     12.44%     87.53% |     3749447     12.47%    100.00% (Unspecified)
system.caches.L2Cache_Controller.Exclusive_Unblock::total     30070123                       (Unspecified)
system.caches.L2Cache_Controller.NP.L1_GET_INSTR |        4661     14.01%     14.01% |        4611     13.86%     27.87% |        3776     11.35%     39.22% |        3736     11.23%     50.45% |        3998     12.02%     62.46% |        4080     12.26%     74.73% |        3941     11.85%     86.57% |        4468     13.43%    100.00% (Unspecified)
system.caches.L2Cache_Controller.NP.L1_GET_INSTR::total        33271                       (Unspecified)
system.caches.L2Cache_Controller.NP.L1_GETS |     1499967     12.55%     12.55% |     1490031     12.46%     25.01% |     1494601     12.50%     37.52% |     1497802     12.53%     50.05% |     1493612     12.49%     62.54% |     1491206     12.47%     75.02% |     1491196     12.47%     87.49% |     1495456     12.51%    100.00% (Unspecified)
system.caches.L2Cache_Controller.NP.L1_GETS::total     11953871                       (Unspecified)
system.caches.L2Cache_Controller.NP.L1_GETX |       91294     12.49%     12.49% |       91376     12.50%     24.99% |       91289     12.49%     37.47% |       91458     12.51%     49.98% |       91637     12.53%     62.51% |       91478     12.51%     75.03% |       91149     12.47%     87.49% |       91430     12.51%    100.00% (Unspecified)
system.caches.L2Cache_Controller.NP.L1_GETX::total       731111                       (Unspecified)
system.caches.L2Cache_Controller.SS.L1_GET_INSTR |        2615      3.57%      3.57% |       11001     15.03%     18.60% |       13394     18.30%     36.91% |        1859      2.54%     39.45% |        7753     10.59%     50.04% |       11066     15.12%     65.16% |       13476     18.41%     83.57% |       12022     16.43%    100.00% (Unspecified)
system.caches.L2Cache_Controller.SS.L1_GET_INSTR::total        73186                       (Unspecified)
system.caches.L2Cache_Controller.SS.L1_GETS |     2671258     12.52%     12.52% |     2619274     12.27%     24.79% |     2667837     12.50%     37.29% |     2666177     12.49%     49.78% |     2750968     12.89%     62.67% |     2696549     12.64%     75.31% |     2598826     12.18%     87.49% |     2670923     12.51%    100.00% (Unspecified)
system.caches.L2Cache_Controller.SS.L1_GETS::total     21341812                       (Unspecified)
system.caches.L2Cache_Controller.SS.L1_GETX |        2478     22.27%     22.27% |        1079      9.70%     31.96% |        1082      9.72%     41.68% |        1069      9.61%     51.29% |        1077      9.68%     60.97% |        1099      9.88%     70.84% |        2120     19.05%     89.89% |        1125     10.11%    100.00% (Unspecified)
system.caches.L2Cache_Controller.SS.L1_GETX::total        11129                       (Unspecified)
system.caches.L2Cache_Controller.SS.L1_UPGRADE |       93525     12.15%     12.15% |       99196     12.88%     25.03% |       99161     12.88%     37.91% |       97060     12.61%     50.51% |       94505     12.27%     62.79% |       92801     12.05%     74.84% |       99580     12.93%     87.77% |       94170     12.23%    100.00% (Unspecified)
system.caches.L2Cache_Controller.SS.L1_UPGRADE::total       769998                       (Unspecified)
system.caches.L2Cache_Controller.SS.L1_PUTX |           0      0.00%      0.00% |           2     16.67%     16.67% |           2     16.67%     33.33% |           2     16.67%     50.00% |           1      8.33%     58.33% |           2     16.67%     75.00% |           3     25.00%    100.00% |           0      0.00%    100.00% (Unspecified)
system.caches.L2Cache_Controller.SS.L1_PUTX::total           12                       (Unspecified)
system.caches.L2Cache_Controller.SS.L2_Replacement |       12919     12.77%     12.77% |       12670     12.52%     25.29% |       12551     12.41%     37.70% |       12608     12.46%     50.16% |       12591     12.45%     62.60% |       12687     12.54%     75.14% |       12524     12.38%     87.52% |       12623     12.48%    100.00% (Unspecified)
system.caches.L2Cache_Controller.SS.L2_Replacement::total       101173                       (Unspecified)
system.caches.L2Cache_Controller.SS.L2_Replacement_clean |       78450     12.34%     12.34% |       77969     12.27%     24.61% |       86252     13.57%     38.18% |       76548     12.04%     50.23% |       76212     11.99%     62.22% |       75749     11.92%     74.14% |       86573     13.62%     87.76% |       77797     12.24%    100.00% (Unspecified)
system.caches.L2Cache_Controller.SS.L2_Replacement_clean::total       635550                       (Unspecified)
system.caches.L2Cache_Controller.M.L1_GETS |     2024621     12.56%     12.56% |     2024338     12.56%     25.12% |     2016010     12.51%     37.63% |     2018408     12.52%     50.15% |     2017095     12.52%     62.67% |     2010914     12.48%     75.15% |     1998330     12.40%     87.55% |     2007213     12.45%    100.00% (Unspecified)
system.caches.L2Cache_Controller.M.L1_GETS::total     16116929                       (Unspecified)
system.caches.L2Cache_Controller.M.L1_GETX |       57852     12.77%     12.77% |       54991     12.14%     24.91% |       51380     11.34%     36.25% |       56644     12.50%     48.75% |       53141     11.73%     60.48% |       62966     13.90%     74.38% |       58028     12.81%     87.19% |       58048     12.81%    100.00% (Unspecified)
system.caches.L2Cache_Controller.M.L1_GETX::total       453050                       (Unspecified)
system.caches.L2Cache_Controller.M.L2_Replacement |      443307     12.53%     12.53% |      440215     12.44%     24.98% |      442372     12.51%     37.48% |      443970     12.55%     50.03% |      442259     12.50%     62.54% |      441906     12.49%     75.03% |      440251     12.45%     87.47% |      443121     12.53%    100.00% (Unspecified)
system.caches.L2Cache_Controller.M.L2_Replacement::total      3537401                       (Unspecified)
system.caches.L2Cache_Controller.M.L2_Replacement_clean |     1043725     12.57%     12.57% |     1037942     12.50%     25.06% |     1031405     12.42%     37.48% |     1042690     12.55%     50.03% |     1041002     12.53%     62.56% |     1039189     12.51%     75.07% |     1029843     12.40%     87.47% |     1040550     12.53%    100.00% (Unspecified)
system.caches.L2Cache_Controller.M.L2_Replacement_clean::total      8306346                       (Unspecified)
system.caches.L2Cache_Controller.MT.L1_GETS |      184920     12.31%     12.31% |      188546     12.55%     24.86% |      197433     13.14%     38.00% |      185802     12.37%     50.37% |      182567     12.15%     62.52% |      180528     12.02%     74.54% |      198971     13.24%     87.78% |      183514     12.22%    100.00% (Unspecified)
system.caches.L2Cache_Controller.MT.L1_GETS::total      1502281                       (Unspecified)
system.caches.L2Cache_Controller.MT.L1_GETX |        2410      6.95%      6.95% |        9169     26.46%     33.41% |        1816      5.24%     38.65% |       13436     38.77%     77.42% |        1912      5.52%     82.94% |        1947      5.62%     88.56% |        1921      5.54%     94.10% |        2044      5.90%    100.00% (Unspecified)
system.caches.L2Cache_Controller.MT.L1_GETX::total        34655                       (Unspecified)
system.caches.L2Cache_Controller.MT.L1_PUTX |     3581591     12.56%     12.56% |     3569515     12.52%     25.08% |     3553253     12.46%     37.55% |     3573793     12.54%     50.08% |     3565608     12.51%     62.59% |     3567000     12.51%     75.10% |     3538582     12.41%     87.51% |     3560994     12.49%    100.00% (Unspecified)
system.caches.L2Cache_Controller.MT.L1_PUTX::total     28510336                       (Unspecified)
system.caches.L2Cache_Controller.MT.L1_PUTX_old |           1    100.00%    100.00% |           0      0.00%    100.00% |           0      0.00%    100.00% |           0      0.00%    100.00% |           0      0.00%    100.00% |           0      0.00%    100.00% |           0      0.00%    100.00% |           0      0.00%    100.00% (Unspecified)
system.caches.L2Cache_Controller.MT.L1_PUTX_old::total            1                       (Unspecified)
system.caches.L2Cache_Controller.MT.L2_Replacement |          88     16.83%     16.83% |          60     11.47%     28.30% |          33      6.31%     34.61% |          65     12.43%     47.04% |          53     10.13%     57.17% |         110     21.03%     78.20% |          55     10.52%     88.72% |          59     11.28%    100.00% (Unspecified)
system.caches.L2Cache_Controller.MT.L2_Replacement::total          523                       (Unspecified)
system.caches.L2Cache_Controller.MT.L2_Replacement_clean |        1049     16.95%     16.95% |         778     12.57%     29.52% |         669     10.81%     40.34% |         731     11.81%     52.15% |         746     12.06%     64.20% |         739     11.94%     76.15% |         656     10.60%     86.75% |         820     13.25%    100.00% (Unspecified)
system.caches.L2Cache_Controller.MT.L2_Replacement_clean::total         6188                       (Unspecified)
system.caches.L2Cache_Controller.M_I.L1_GET_INSTR |          27     31.40%     31.40% |           7      8.14%     39.53% |          13     15.12%     54.65% |          19     22.09%     76.74% |          13     15.12%     91.86% |           6      6.98%     98.84% |           0      0.00%     98.84% |           1      1.16%    100.00% (Unspecified)
system.caches.L2Cache_Controller.M_I.L1_GET_INSTR::total           86                       (Unspecified)
system.caches.L2Cache_Controller.M_I.L1_GETS |          17     45.95%     45.95% |           4     10.81%     56.76% |           0      0.00%     56.76% |           0      0.00%     56.76% |           3      8.11%     64.86% |           4     10.81%     75.68% |           0      0.00%     75.68% |           9     24.32%    100.00% (Unspecified)
system.caches.L2Cache_Controller.M_I.L1_GETS::total           37                       (Unspecified)
system.caches.L2Cache_Controller.M_I.L1_GETX |           8     50.00%     50.00% |           0      0.00%     50.00% |           0      0.00%     50.00% |           0      0.00%     50.00% |           0      0.00%     50.00% |           0      0.00%     50.00% |           0      0.00%     50.00% |           8     50.00%    100.00% (Unspecified)
system.caches.L2Cache_Controller.M_I.L1_GETX::total           16                       (Unspecified)
system.caches.L2Cache_Controller.M_I.Mem_Ack |     1579538     12.55%     12.55% |     1569634     12.47%     25.02% |     1573282     12.50%     37.52% |     1576612     12.53%     50.04% |     1572863     12.50%     62.54% |     1570380     12.48%     75.02% |     1569902     12.47%     87.49% |     1574970     12.51%    100.00% (Unspecified)
system.caches.L2Cache_Controller.M_I.Mem_Ack::total     12587181                       (Unspecified)
system.caches.L2Cache_Controller.MT_I.WB_Data |          68     15.14%     15.14% |          50     11.14%     26.28% |          28      6.24%     32.52% |          60     13.36%     45.88% |          47     10.47%     56.35% |          95     21.16%     77.51% |          46     10.24%     87.75% |          55     12.25%    100.00% (Unspecified)
system.caches.L2Cache_Controller.MT_I.WB_Data::total          449                       (Unspecified)
system.caches.L2Cache_Controller.MT_I.Ack_all |          20     27.03%     27.03% |          10     13.51%     40.54% |           5      6.76%     47.30% |           5      6.76%     54.05% |           6      8.11%     62.16% |          15     20.27%     82.43% |           9     12.16%     94.59% |           4      5.41%    100.00% (Unspecified)
system.caches.L2Cache_Controller.MT_I.Ack_all::total           74                       (Unspecified)
system.caches.L2Cache_Controller.MCT_I.WB_Data |         751     15.47%     15.47% |         590     12.15%     27.62% |         559     11.51%     39.13% |         565     11.64%     50.76% |         593     12.21%     62.97% |         582     11.99%     74.96% |         552     11.37%     86.33% |         664     13.67%    100.00% (Unspecified)
system.caches.L2Cache_Controller.MCT_I.WB_Data::total         4856                       (Unspecified)
system.caches.L2Cache_Controller.MCT_I.Ack_all |         298     22.37%     22.37% |         188     14.11%     36.49% |         110      8.26%     44.74% |         166     12.46%     57.21% |         153     11.49%     68.69% |         157     11.79%     80.48% |         104      7.81%     88.29% |         156     11.71%    100.00% (Unspecified)
system.caches.L2Cache_Controller.MCT_I.Ack_all::total         1332                       (Unspecified)
system.caches.L2Cache_Controller.I_I.Ack |       77160     12.32%     12.32% |       76613     12.23%     24.55% |       85099     13.59%     38.14% |       75387     12.04%     50.18% |       75211     12.01%     62.19% |       74719     11.93%     74.12% |       85670     13.68%     87.80% |       76396     12.20%    100.00% (Unspecified)
system.caches.L2Cache_Controller.I_I.Ack::total       626255                       (Unspecified)
system.caches.L2Cache_Controller.I_I.Ack_all |       78450     12.34%     12.34% |       77969     12.27%     24.61% |       86252     13.57%     38.18% |       76548     12.04%     50.23% |       76212     11.99%     62.22% |       75749     11.92%     74.14% |       86573     13.62%     87.76% |       77797     12.24%    100.00% (Unspecified)
system.caches.L2Cache_Controller.I_I.Ack_all::total       635550                       (Unspecified)
system.caches.L2Cache_Controller.S_I.Ack |       12919     12.77%     12.77% |       12670     12.52%     25.29% |       12551     12.41%     37.70% |       12608     12.46%     50.16% |       12591     12.45%     62.60% |       12687     12.54%     75.14% |       12524     12.38%     87.52% |       12623     12.48%    100.00% (Unspecified)
system.caches.L2Cache_Controller.S_I.Ack::total       101173                       (Unspecified)
system.caches.L2Cache_Controller.S_I.Ack_all |       12919     12.77%     12.77% |       12670     12.52%     25.29% |       12551     12.41%     37.70% |       12608     12.46%     50.16% |       12591     12.45%     62.60% |       12687     12.54%     75.14% |       12524     12.38%     87.52% |       12623     12.48%    100.00% (Unspecified)
system.caches.L2Cache_Controller.S_I.Ack_all::total       101173                       (Unspecified)
system.caches.L2Cache_Controller.ISS.L1_GETS |          92     14.84%     14.84% |          87     14.03%     28.87% |         129     20.81%     49.68% |          28      4.52%     54.19% |          68     10.97%     65.16% |          63     10.16%     75.32% |         114     18.39%     93.71% |          39      6.29%    100.00% (Unspecified)
system.caches.L2Cache_Controller.ISS.L1_GETS::total          620                       (Unspecified)
system.caches.L2Cache_Controller.ISS.Mem_Data |     1499875     12.55%     12.55% |     1489944     12.46%     25.01% |     1494472     12.50%     37.52% |     1497774     12.53%     50.05% |     1493544     12.49%     62.54% |     1491143     12.47%     75.02% |     1491082     12.47%     87.49% |     1495417     12.51%    100.00% (Unspecified)
system.caches.L2Cache_Controller.ISS.Mem_Data::total     11953251                       (Unspecified)
system.caches.L2Cache_Controller.IS.L1_GET_INSTR |        1654     16.27%     16.27% |        1472     14.48%     30.76% |        1076     10.59%     41.35% |        1205     11.86%     53.20% |        1320     12.99%     66.19% |        1198     11.79%     77.98% |        1079     10.62%     88.60% |        1159     11.40%    100.00% (Unspecified)
system.caches.L2Cache_Controller.IS.L1_GET_INSTR::total        10163                       (Unspecified)
system.caches.L2Cache_Controller.IS.Mem_Data |        4753     14.02%     14.02% |        4698     13.86%     27.89% |        3905     11.52%     39.41% |        3764     11.11%     50.51% |        4066     12.00%     62.51% |        4143     12.22%     74.74% |        4055     11.96%     86.70% |        4507     13.30%    100.00% (Unspecified)
system.caches.L2Cache_Controller.IS.Mem_Data::total        33891                       (Unspecified)
system.caches.L2Cache_Controller.IM.L1_GETS |           0      0.00%      0.00% |           0      0.00%      0.00% |           0      0.00%      0.00% |           0      0.00%      0.00% |           1     50.00%     50.00% |           0      0.00%     50.00% |           1     50.00%    100.00% |           0      0.00%    100.00% (Unspecified)
system.caches.L2Cache_Controller.IM.L1_GETS::total            2                       (Unspecified)
system.caches.L2Cache_Controller.IM.L1_GETX |           0      0.00%      0.00% |           1    100.00%    100.00% |           0      0.00%    100.00% |           0      0.00%    100.00% |           0      0.00%    100.00% |           0      0.00%    100.00% |           0      0.00%    100.00% |           0      0.00%    100.00% (Unspecified)
system.caches.L2Cache_Controller.IM.L1_GETX::total            1                       (Unspecified)
system.caches.L2Cache_Controller.IM.Mem_Data |       91294     12.49%     12.49% |       91376     12.50%     24.99% |       91289     12.49%     37.47% |       91458     12.51%     49.98% |       91637     12.53%     62.51% |       91478     12.51%     75.03% |       91149     12.47%     87.49% |       91430     12.51%    100.00% (Unspecified)
system.caches.L2Cache_Controller.IM.Mem_Data::total       731111                       (Unspecified)
system.caches.L2Cache_Controller.SS_MB.L1_GETS |           1      0.03%      0.03% |           1      0.03%      0.06% |           6      0.19%      0.26% |           0      0.00%      0.26% |           0      0.00%      0.26% |           0      0.00%      0.26% |        3101     99.65%     99.90% |           3      0.10%    100.00% (Unspecified)
system.caches.L2Cache_Controller.SS_MB.L1_GETS::total         3112                       (Unspecified)
[...]
system.timingCpu0.exec_context.thread_0.statExecutedInstType::FloatMemWrite      2463703      0.27%    100.00% # Class of executed instruction. (Count)
system.timingCpu0.exec_context.thread_0.statExecutedInstType::IprAccess            0      0.00%    100.00% # Class of executed instruction. (Count)
system.timingCpu0.exec_context.thread_0.statExecutedInstType::InstPrefetch            0      0.00%    100.00% # Class of executed instruction. (Count)
system.timingCpu0.exec_context.thread_0.statExecutedInstType::total    921415345                       # Class of executed instruction. (Count)
system.timingCpu0.mmu.dtb.rdAccesses        155426755                       # TLB accesses on read requests (Count)
system.timingCpu0.mmu.dtb.wrAccesses         16970860                       # TLB accesses on write requests (Count)
system.timingCpu0.mmu.dtb.rdMisses            1746428                       # TLB misses on read requests (Count)
system.timingCpu0.mmu.dtb.wrMisses               8097                       # TLB misses on write requests (Count)
system.timingCpu0.mmu.dtb.walker.power_state.pwrStateResidencyTicks::UNDEFINED 165436664161251                       # Cumulative time (in ticks) in various power states (Tick)
system.timingCpu0.mmu.itb.rdAccesses                0                       # TLB accesses on read requests (Count)
system.timingCpu0.mmu.itb.wrAccesses        743666317                       # TLB accesses on write requests (Count)
system.timingCpu0.mmu.itb.rdMisses                  0                       # TLB misses on read requests (Count)
system.timingCpu0.mmu.itb.wrMisses               4784                       # TLB misses on write requests (Count)
system.timingCpu0.mmu.itb.walker.power_state.pwrStateResidencyTicks::UNDEFINED 165436664161251                       # Cumulative time (in ticks) in various power states (Tick)
system.timingCpu0.power_state.numTransitions            4                       # Number of power state transitions (Count)
system.timingCpu0.power_state.ticksClkGated::samples            2                       # Distribution of time spent in the clock gated state (Tick)
system.timingCpu0.power_state.ticksClkGated::mean    500167000                       # Distribution of time spent in the clock gated state (Tick)
system.timingCpu0.power_state.ticksClkGated::stdev 456607839.990182                       # Distribution of time spent in the clock gated state (Tick)
system.timingCpu0.power_state.ticksClkGated::1000-5e+10            2    100.00%    100.00% # Distribution of time spent in the clock gated state (Tick)
system.timingCpu0.power_state.ticksClkGated::min_value    177296500                       # Distribution of time spent in the clock gated state (Tick)
system.timingCpu0.power_state.ticksClkGated::max_value    823037500                       # Distribution of time spent in the clock gated state (Tick)
system.timingCpu0.power_state.ticksClkGated::total            2                       # Distribution of time spent in the clock gated state (Tick)
system.timingCpu0.power_state.pwrStateResidencyTicks::ON 1170841123751                       # Cumulative time (in ticks) in various power states (Tick)
system.timingCpu0.power_state.pwrStateResidencyTicks::CLK_GATED   1000334000                       # Cumulative time (in ticks) in various power states (Tick)
system.timingCpu0.power_state.pwrStateResidencyTicks::OFF 164264822703500                       # Cumulative time (in ticks) in various power states (Tick)
system.timingCpu0.thread_0.numInsts                 0                       # Number of Instructions committed (Count)
system.timingCpu0.thread_0.numOps                   0                       # Number of Ops committed (Count)
system.timingCpu0.thread_0.numMemRefs               0                       # Number of Memory References (Count)
system.timingCpu1.numCycles                4801170343                       # Number of cpu cycles simulated (Cycle)
system.timingCpu1.numWorkItemsStarted               0                       # Number of work items this cpu started (Count)
system.timingCpu1.numWorkItemsCompleted             0                       # Number of work items this cpu completed (Count)
system.timingCpu1.exec_context.thread_0.numInsts    565393089                       # Number of instructions committed (Count)
system.timingCpu1.exec_context.thread_0.numOps    919726519                       # Number of ops (including micro ops) committed (Count)
system.timingCpu1.exec_context.thread_0.numIntAluAccesses    847953025                       # Number of integer alu accesses (Count)
system.timingCpu1.exec_context.thread_0.numFpAluAccesses     80751191                       # Number of float alu accesses (Count)
system.timingCpu1.exec_context.thread_0.numVecAluAccesses            0                       # Number of vector alu accesses (Count)
system.timingCpu1.exec_context.thread_0.numCallsReturns       237286                       # Number of times a function call or return occured (Count)
system.timingCpu1.exec_context.thread_0.numCondCtrlInsts     92223436                       # Number of instructions that are conditional controls (Count)
system.timingCpu1.exec_context.thread_0.numIntInsts    847953025                       # Number of integer instructions (Count)
system.timingCpu1.exec_context.thread_0.numFpInsts     80751191                       # Number of float instructions (Count)
system.timingCpu1.exec_context.thread_0.numVecInsts            0                       # Number of vector instructions (Count)
system.timingCpu1.exec_context.thread_0.numIntRegReads   1180166822                       # Number of times the integer registers were read (Count)
system.timingCpu1.exec_context.thread_0.numIntRegWrites    619540365                       # Number of times the integer registers were written (Count)
system.timingCpu1.exec_context.thread_0.numFpRegReads     92566592                       # Number of times the floating registers were read (Count)
system.timingCpu1.exec_context.thread_0.numFpRegWrites     74385585                       # Number of times the floating registers were written (Count)
system.timingCpu1.exec_context.thread_0.numVecRegReads            0                       # Number of times the vector registers were read (Count)
system.timingCpu1.exec_context.thread_0.numVecRegWrites            0                       # Number of times the vector registers were written (Count)
system.timingCpu1.exec_context.thread_0.numVecPredRegReads            0                       # Number of times the predicate registers were read (Count)
system.timingCpu1.exec_context.thread_0.numVecPredRegWrites            0                       # Number of times the predicate registers were written (Count)
system.timingCpu1.exec_context.thread_0.numCCRegReads    615878832                       # Number of times the CC registers were read (Count)
system.timingCpu1.exec_context.thread_0.numCCRegWrites    405120149                       # Number of times the CC registers were written (Count)
system.timingCpu1.exec_context.thread_0.numMiscRegReads    362047232                       # Number of times the Misc registers were read (Count)
system.timingCpu1.exec_context.thread_0.numMiscRegWrites        44575                       # Number of times the Misc registers were written (Count)
system.timingCpu1.exec_context.thread_0.numMemRefs    168967739                       # Number of memory refs (Count)
system.timingCpu1.exec_context.thread_0.numLoadInsts    153488680                       # Number of load instructions (Count)
system.timingCpu1.exec_context.thread_0.numStoreInsts     15479059                       # Number of store instructions (Count)
system.timingCpu1.exec_context.thread_0.numIdleCycles 51402063.999914                       # Number of idle cycles (Cycle)
system.timingCpu1.exec_context.thread_0.numBusyCycles 4749768279.000086                       # Number of busy cycles (Cycle)
system.timingCpu1.exec_context.thread_0.notIdleFraction     0.989294                       # Percentage of non-idle cycles (Ratio)
system.timingCpu1.exec_context.thread_0.idleFraction     0.010706                       # Percentage of idle cycles (Ratio)
system.timingCpu1.exec_context.thread_0.numBranches     96527319                       # Number of branches fetched (Count)
system.timingCpu1.exec_context.thread_0.statExecutedInstType::No_OpClass       416036      0.05%      0.05% # Class of executed instruction. (Count)
system.timingCpu1.exec_context.thread_0.statExecutedInstType::IntAlu    692438548     75.28%     75.33% # Class of executed instruction. (Count)
system.timingCpu1.exec_context.thread_0.statExecutedInstType::IntMult        30552      0.00%     75.33% # Class of executed instruction. (Count)
system.timingCpu1.exec_context.thread_0.statExecutedInstType::IntDiv        57890      0.01%     75.34% # Class of executed instruction. (Count)
system.timingCpu1.exec_context.thread_0.statExecutedInstType::FloatAdd     20732807      2.25%     77.59% # Class of executed instruction. (Count)
system.timingCpu1.exec_context.thread_0.statExecutedInstType::FloatCmp            0      0.00%     77.59% # Class of executed instruction. (Count)
system.timingCpu1.exec_context.thread_0.statExecutedInstType::FloatCvt           48      0.00%     77.59% # Class of executed instruction. (Count)
system.timingCpu1.exec_context.thread_0.statExecutedInstType::FloatMult            0      0.00%     77.59% # Class of executed instruction. (Count)
system.timingCpu1.exec_context.thread_0.statExecutedInstType::FloatMultAcc            0      0.00%     77.59% # Class of executed instruction. (Count)
system.timingCpu1.exec_context.thread_0.statExecutedInstType::FloatDiv            0      0.00%     77.59% # Class of executed instruction. (Count)
system.timingCpu1.exec_context.thread_0.statExecutedInstType::FloatMisc            0      0.00%     77.59% # Class of executed instruction. (Count)
system.timingCpu1.exec_context.thread_0.statExecutedInstType::FloatSqrt            0      0.00%     77.59% # Class of executed instruction. (Count)
system.timingCpu1.exec_context.thread_0.statExecutedInstType::SimdAdd          390      0.00%     77.59% # Class of executed instruction. (Count)
system.timingCpu1.exec_context.thread_0.statExecutedInstType::SimdAddAcc            0      0.00%     77.59% # Class of executed instruction. (Count)
system.timingCpu1.exec_context.thread_0.statExecutedInstType::SimdAlu       645767      0.07%     77.66% # Class of executed instruction. (Count)
system.timingCpu1.exec_context.thread_0.statExecutedInstType::SimdCmp            0      0.00%     77.66% # Class of executed instruction. (Count)
system.timingCpu1.exec_context.thread_0.statExecutedInstType::SimdCvt           96      0.00%     77.66% # Class of executed instruction. (Count)
system.timingCpu1.exec_context.thread_0.statExecutedInstType::SimdMisc      3928736      0.43%     78.09% # Class of executed instruction. (Count)
system.timingCpu1.exec_context.thread_0.statExecutedInstType::SimdMult            0      0.00%     78.09% # Class of executed instruction. (Count)
system.timingCpu1.exec_context.thread_0.statExecutedInstType::SimdMultAcc            0      0.00%     78.09% # Class of executed instruction. (Count)
system.timingCpu1.exec_context.thread_0.statExecutedInstType::SimdShift          208      0.00%     78.09% # Class of executed instruction. (Count)
system.timingCpu1.exec_context.thread_0.statExecutedInstType::SimdShiftAcc            0      0.00%     78.09% # Class of executed instruction. (Count)
system.timingCpu1.exec_context.thread_0.statExecutedInstType::SimdDiv            0      0.00%     78.09% # Class of executed instruction. (Count)
system.timingCpu1.exec_context.thread_0.statExecutedInstType::SimdSqrt            0      0.00%     78.09% # Class of executed instruction. (Count)
system.timingCpu1.exec_context.thread_0.statExecutedInstType::SimdFloatAdd     12122693      1.32%     79.41% # Class of executed instruction. (Count)
system.timingCpu1.exec_context.thread_0.statExecutedInstType::SimdFloatAlu            0      0.00%     79.41% # Class of executed instruction. (Count)
system.timingCpu1.exec_context.thread_0.statExecutedInstType::SimdFloatCmp            1      0.00%     79.41% # Class of executed instruction. (Count)
system.timingCpu1.exec_context.thread_0.statExecutedInstType::SimdFloatCvt     12331147      1.34%     80.75% # Class of executed instruction. (Count)
system.timingCpu1.exec_context.thread_0.statExecutedInstType::SimdFloatDiv      4197765      0.46%     81.20% # Class of executed instruction. (Count)
system.timingCpu1.exec_context.thread_0.statExecutedInstType::SimdFloatMisc            0      0.00%     81.20% # Class of executed instruction. (Count)
system.timingCpu1.exec_context.thread_0.statExecutedInstType::SimdFloatMult      3935620      0.43%     81.63% # Class of executed instruction. (Count)
system.timingCpu1.exec_context.thread_0.statExecutedInstType::SimdFloatMultAcc            0      0.00%     81.63% # Class of executed instruction. (Count)
system.timingCpu1.exec_context.thread_0.statExecutedInstType::SimdFloatSqrt            0      0.00%     81.63% # Class of executed instruction. (Count)
system.timingCpu1.exec_context.thread_0.statExecutedInstType::SimdReduceAdd            0      0.00%     81.63% # Class of executed instruction. (Count)
system.timingCpu1.exec_context.thread_0.statExecutedInstType::SimdReduceAlu            0      0.00%     81.63% # Class of executed instruction. (Count)
system.timingCpu1.exec_context.thread_0.statExecutedInstType::SimdReduceCmp            0      0.00%     81.63% # Class of executed instruction. (Count)
system.timingCpu1.exec_context.thread_0.statExecutedInstType::SimdFloatReduceAdd            0      0.00%     81.63% # Class of executed instruction. (Count)
system.timingCpu1.exec_context.thread_0.statExecutedInstType::SimdFloatReduceCmp            0      0.00%     81.63% # Class of executed instruction. (Count)
system.timingCpu1.exec_context.thread_0.statExecutedInstType::SimdAes            0      0.00%     81.63% # Class of executed instruction. (Count)
system.timingCpu1.exec_context.thread_0.statExecutedInstType::SimdAesMix            0      0.00%     81.63% # Class of executed instruction. (Count)
system.timingCpu1.exec_context.thread_0.statExecutedInstType::SimdSha1Hash            0      0.00%     81.63% # Class of executed instruction. (Count)
system.timingCpu1.exec_context.thread_0.statExecutedInstType::SimdSha1Hash2            0      0.00%     81.63% # Class of executed instruction. (Count)
system.timingCpu1.exec_context.thread_0.statExecutedInstType::SimdSha256Hash            0      0.00%     81.63% # Class of executed instruction. (Count)
system.timingCpu1.exec_context.thread_0.statExecutedInstType::SimdSha256Hash2            0      0.00%     81.63% # Class of executed instruction. (Count)
system.timingCpu1.exec_context.thread_0.statExecutedInstType::SimdShaSigma2            0      0.00%     81.63% # Class of executed instruction. (Count)
system.timingCpu1.exec_context.thread_0.statExecutedInstType::SimdShaSigma3            0      0.00%     81.63% # Class of executed instruction. (Count)
system.timingCpu1.exec_context.thread_0.statExecutedInstType::SimdPredAlu            0      0.00%     81.63% # Class of executed instruction. (Count)
system.timingCpu1.exec_context.thread_0.statExecutedInstType::MemRead    132545966     14.41%     96.04% # Class of executed instruction. (Count)
system.timingCpu1.exec_context.thread_0.statExecutedInstType::MemWrite     13566394      1.47%     97.52% # Class of executed instruction. (Count)
system.timingCpu1.exec_context.thread_0.statExecutedInstType::FloatMemRead     20942714      2.28%     99.79% # Class of executed instruction. (Count)
system.timingCpu1.exec_context.thread_0.statExecutedInstType::FloatMemWrite      1912665      0.21%    100.00% # Class of executed instruction. (Count)
system.timingCpu1.exec_context.thread_0.statExecutedInstType::IprAccess            0      0.00%    100.00% # Class of executed instruction. (Count)
system.timingCpu1.exec_context.thread_0.statExecutedInstType::InstPrefetch            0      0.00%    100.00% # Class of executed instruction. (Count)
system.timingCpu1.exec_context.thread_0.statExecutedInstType::total    919806043                       # Class of executed instruction. (Count)
system.timingCpu1.mmu.dtb.rdAccesses        155273014                       # TLB accesses on read requests (Count)
system.timingCpu1.mmu.dtb.wrAccesses         15486504                       # TLB accesses on write requests (Count)
system.timingCpu1.mmu.dtb.rdMisses            1750375                       # TLB misses on read requests (Count)
system.timingCpu1.mmu.dtb.wrMisses               7835                       # TLB misses on write requests (Count)
system.timingCpu1.mmu.dtb.walker.power_state.pwrStateResidencyTicks::UNDEFINED 165436664161251                       # Cumulative time (in ticks) in various power states (Tick)
system.timingCpu1.mmu.itb.rdAccesses                0                       # TLB accesses on read requests (Count)
system.timingCpu1.mmu.itb.wrAccesses        743364408                       # TLB accesses on write requests (Count)
system.timingCpu1.mmu.itb.rdMisses                  0                       # TLB misses on read requests (Count)
system.timingCpu1.mmu.itb.wrMisses               3604                       # TLB misses on write requests (Count)
system.timingCpu1.mmu.itb.walker.power_state.pwrStateResidencyTicks::UNDEFINED 165436664161251                       # Cumulative time (in ticks) in various power states (Tick)
system.timingCpu1.power_state.numTransitions           28                       # Number of power state transitions (Count)
system.timingCpu1.power_state.ticksClkGated::samples           14                       # Distribution of time spent in the clock gated state (Tick)
system.timingCpu1.power_state.ticksClkGated::mean    917894000                       # Distribution of time spent in the clock gated state (Tick)
system.timingCpu1.power_state.ticksClkGated::stdev 206355748.405491                       # Distribution of time spent in the clock gated state (Tick)
system.timingCpu1.power_state.ticksClkGated::1000-5e+10           14    100.00%    100.00% # Distribution of time spent in the clock gated state (Tick)
system.timingCpu1.power_state.ticksClkGated::min_value    316110000                       # Distribution of time spent in the clock gated state (Tick)
system.timingCpu1.power_state.ticksClkGated::max_value    998287250                       # Distribution of time spent in the clock gated state (Tick)
system.timingCpu1.power_state.ticksClkGated::total           14                       # Distribution of time spent in the clock gated state (Tick)
system.timingCpu1.power_state.pwrStateResidencyTicks::ON 1179389331501                       # Cumulative time (in ticks) in various power states (Tick)
system.timingCpu1.power_state.pwrStateResidencyTicks::CLK_GATED  12850516000                       # Cumulative time (in ticks) in various power states (Tick)
system.timingCpu1.power_state.pwrStateResidencyTicks::OFF 164244424313750                       # Cumulative time (in ticks) in various power states (Tick)
system.timingCpu1.thread_0.numInsts                 0                       # Number of Instructions committed (Count)
system.timingCpu1.thread_0.numOps                   0                       # Number of Ops committed (Count)
system.timingCpu1.thread_0.numMemRefs               0                       # Number of Memory References (Count)
system.workload.inst.arm                            0                       # number of arm instructions executed (Count)
system.workload.inst.quiesce                        0                       # number of quiesce instructions executed (Count)

---------- End Simulation Statistics   ----------
