
---------- Begin Simulation Statistics ----------
simSeconds                                   0.010000                       # Number of seconds simulated (Second)
simTicks                                  10000004000                       # Number of ticks simulated (Tick)
finalTick                                 10000004000                       # Number of ticks from beginning of simulation (restored from checkpoints and never reset) (Tick)
simFreq                                  1000000000000                       # The number of ticks per simulated second ((Tick/Second))
hostSeconds                                     79.79                       # Real time elapsed on the host (Second)
hostTickRate                                125332332                       # The number of ticks simulated per host second (ticks/s) ((Tick/Second))
hostMemory                                    3276144                       # Number of bytes of host memory used (Byte)
system.clk_domain.clock                           250                       # Clock period in ticks (Tick)
system.clk_domain.voltage_domain.voltage            1                       # Voltage in Volts (Volt)
system.far_mem_ctrl.priorityMinLatency   0.000000000000                       # per QoS priority minimum request to response latency (Second)
system.far_mem_ctrl.priorityMaxLatency   0.000000000000                       # per QoS priority maximum request to response latency (Second)
system.far_mem_ctrl.numReadWriteTurnArounds            0                       # Number of turnarounds from READ to WRITE (Count)
system.far_mem_ctrl.numWriteReadTurnArounds            0                       # Number of turnarounds from WRITE to READ (Count)
system.far_mem_ctrl.numStayReadState             2568                       # Number of times bus staying in READ state (Count)
system.far_mem_ctrl.numStayWriteState               0                       # Number of times bus staying in WRITE state (Count)
system.far_mem_ctrl.readReqs                        0                       # Number of read requests accepted (Count)
system.far_mem_ctrl.writeReqs                       0                       # Number of write requests accepted (Count)
system.far_mem_ctrl.readBursts                      0                       # Number of controller read bursts, including those serviced by the write queue (Count)
system.far_mem_ctrl.writeBursts                     0                       # Number of controller write bursts, including those merged in the write queue (Count)
system.far_mem_ctrl.servicedByWrQ                   0                       # Number of controller read bursts serviced by the write queue (Count)
system.far_mem_ctrl.mergedWrBursts                  0                       # Number of controller write bursts merged with an existing one (Count)
system.far_mem_ctrl.avgRdQLen                    0.00                       # Average read queue length when enqueuing ((Count/Tick))
system.far_mem_ctrl.avgWrQLen                    0.00                       # Average write queue length when enqueuing ((Count/Tick))
system.far_mem_ctrl.numRdRetry                      0                       # Number of times read queue was full causing retry (Count)
system.far_mem_ctrl.numWrRetry                      0                       # Number of times write queue was full causing retry (Count)
system.far_mem_ctrl.readPktSize::0                  0                       # Read request sizes (log2) (Count)
system.far_mem_ctrl.readPktSize::1                  0                       # Read request sizes (log2) (Count)
system.far_mem_ctrl.readPktSize::2                  0                       # Read request sizes (log2) (Count)
system.far_mem_ctrl.readPktSize::3                  0                       # Read request sizes (log2) (Count)
system.far_mem_ctrl.readPktSize::4                  0                       # Read request sizes (log2) (Count)
system.far_mem_ctrl.readPktSize::5                  0                       # Read request sizes (log2) (Count)
system.far_mem_ctrl.readPktSize::6                  0                       # Read request sizes (log2) (Count)
system.far_mem_ctrl.writePktSize::0                 0                       # Write request sizes (log2) (Count)
system.far_mem_ctrl.writePktSize::1                 0                       # Write request sizes (log2) (Count)
system.far_mem_ctrl.writePktSize::2                 0                       # Write request sizes (log2) (Count)
system.far_mem_ctrl.writePktSize::3                 0                       # Write request sizes (log2) (Count)
system.far_mem_ctrl.writePktSize::4                 0                       # Write request sizes (log2) (Count)
system.far_mem_ctrl.writePktSize::5                 0                       # Write request sizes (log2) (Count)
system.far_mem_ctrl.writePktSize::6                 0                       # Write request sizes (log2) (Count)
system.far_mem_ctrl.rdQLenPdf::0                    0                       # What read queue length does an incoming req see (Count)
system.far_mem_ctrl.rdQLenPdf::1                    0                       # What read queue length does an incoming req see (Count)
system.far_mem_ctrl.rdQLenPdf::2                    0                       # What read queue length does an incoming req see (Count)
system.far_mem_ctrl.rdQLenPdf::3                    0                       # What read queue length does an incoming req see (Count)
system.far_mem_ctrl.rdQLenPdf::4                    0                       # What read queue length does an incoming req see (Count)
system.far_mem_ctrl.rdQLenPdf::5                    0                       # What read queue length does an incoming req see (Count)
system.far_mem_ctrl.rdQLenPdf::6                    0                       # What read queue length does an incoming req see (Count)
system.far_mem_ctrl.rdQLenPdf::7                    0                       # What read queue length does an incoming req see (Count)
system.far_mem_ctrl.rdQLenPdf::8                    0                       # What read queue length does an incoming req see (Count)
system.far_mem_ctrl.rdQLenPdf::9                    0                       # What read queue length does an incoming req see (Count)
system.far_mem_ctrl.rdQLenPdf::10                   0                       # What read queue length does an incoming req see (Count)
system.far_mem_ctrl.rdQLenPdf::11                   0                       # What read queue length does an incoming req see (Count)
system.far_mem_ctrl.rdQLenPdf::12                   0                       # What read queue length does an incoming req see (Count)
system.far_mem_ctrl.rdQLenPdf::13                   0                       # What read queue length does an incoming req see (Count)
system.far_mem_ctrl.rdQLenPdf::14                   0                       # What read queue length does an incoming req see (Count)
system.far_mem_ctrl.rdQLenPdf::15                   0                       # What read queue length does an incoming req see (Count)
system.far_mem_ctrl.rdQLenPdf::16                   0                       # What read queue length does an incoming req see (Count)
system.far_mem_ctrl.rdQLenPdf::17                   0                       # What read queue length does an incoming req see (Count)
system.far_mem_ctrl.rdQLenPdf::18                   0                       # What read queue length does an incoming req see (Count)
system.far_mem_ctrl.rdQLenPdf::19                   0                       # What read queue length does an incoming req see (Count)
system.far_mem_ctrl.rdQLenPdf::20                   0                       # What read queue length does an incoming req see (Count)
system.far_mem_ctrl.rdQLenPdf::21                   0                       # What read queue length does an incoming req see (Count)
system.far_mem_ctrl.rdQLenPdf::22                   0                       # What read queue length does an incoming req see (Count)
system.far_mem_ctrl.rdQLenPdf::23                   0                       # What read queue length does an incoming req see (Count)
system.far_mem_ctrl.rdQLenPdf::24                   0                       # What read queue length does an incoming req see (Count)
system.far_mem_ctrl.rdQLenPdf::25                   0                       # What read queue length does an incoming req see (Count)
system.far_mem_ctrl.rdQLenPdf::26                   0                       # What read queue length does an incoming req see (Count)
system.far_mem_ctrl.rdQLenPdf::27                   0                       # What read queue length does an incoming req see (Count)
system.far_mem_ctrl.rdQLenPdf::28                   0                       # What read queue length does an incoming req see (Count)
system.far_mem_ctrl.rdQLenPdf::29                   0                       # What read queue length does an incoming req see (Count)
system.far_mem_ctrl.rdQLenPdf::30                   0                       # What read queue length does an incoming req see (Count)
system.far_mem_ctrl.rdQLenPdf::31                   0                       # What read queue length does an incoming req see (Count)
system.far_mem_ctrl.rdQLenPdf::32                   0                       # What read queue length does an incoming req see (Count)
system.far_mem_ctrl.rdQLenPdf::33                   0                       # What read queue length does an incoming req see (Count)
system.far_mem_ctrl.rdQLenPdf::34                   0                       # What read queue length does an incoming req see (Count)
system.far_mem_ctrl.rdQLenPdf::35                   0                       # What read queue length does an incoming req see (Count)
system.far_mem_ctrl.rdQLenPdf::36                   0                       # What read queue length does an incoming req see (Count)
system.far_mem_ctrl.rdQLenPdf::37                   0                       # What read queue length does an incoming req see (Count)
system.far_mem_ctrl.rdQLenPdf::38                   0                       # What read queue length does an incoming req see (Count)
system.far_mem_ctrl.rdQLenPdf::39                   0                       # What read queue length does an incoming req see (Count)
system.far_mem_ctrl.rdQLenPdf::40                   0                       # What read queue length does an incoming req see (Count)
system.far_mem_ctrl.rdQLenPdf::41                   0                       # What read queue length does an incoming req see (Count)
system.far_mem_ctrl.rdQLenPdf::42                   0                       # What read queue length does an incoming req see (Count)
system.far_mem_ctrl.rdQLenPdf::43                   0                       # What read queue length does an incoming req see (Count)
system.far_mem_ctrl.rdQLenPdf::44                   0                       # What read queue length does an incoming req see (Count)
system.far_mem_ctrl.rdQLenPdf::45                   0                       # What read queue length does an incoming req see (Count)
system.far_mem_ctrl.rdQLenPdf::46                   0                       # What read queue length does an incoming req see (Count)
system.far_mem_ctrl.rdQLenPdf::47                   0                       # What read queue length does an incoming req see (Count)
system.far_mem_ctrl.rdQLenPdf::48                   0                       # What read queue length does an incoming req see (Count)
system.far_mem_ctrl.rdQLenPdf::49                   0                       # What read queue length does an incoming req see (Count)
system.far_mem_ctrl.rdQLenPdf::50                   0                       # What read queue length does an incoming req see (Count)
system.far_mem_ctrl.rdQLenPdf::51                   0                       # What read queue length does an incoming req see (Count)
system.far_mem_ctrl.rdQLenPdf::52                   0                       # What read queue length does an incoming req see (Count)
system.far_mem_ctrl.rdQLenPdf::53                   0                       # What read queue length does an incoming req see (Count)
system.far_mem_ctrl.rdQLenPdf::54                   0                       # What read queue length does an incoming req see (Count)
system.far_mem_ctrl.rdQLenPdf::55                   0                       # What read queue length does an incoming req see (Count)
system.far_mem_ctrl.rdQLenPdf::56                   0                       # What read queue length does an incoming req see (Count)
system.far_mem_ctrl.rdQLenPdf::57                   0                       # What read queue length does an incoming req see (Count)
system.far_mem_ctrl.rdQLenPdf::58                   0                       # What read queue length does an incoming req see (Count)
system.far_mem_ctrl.rdQLenPdf::59                   0                       # What read queue length does an incoming req see (Count)
system.far_mem_ctrl.rdQLenPdf::60                   0                       # What read queue length does an incoming req see (Count)
system.far_mem_ctrl.rdQLenPdf::61                   0                       # What read queue length does an incoming req see (Count)
system.far_mem_ctrl.rdQLenPdf::62                   0                       # What read queue length does an incoming req see (Count)
system.far_mem_ctrl.rdQLenPdf::63                   0                       # What read queue length does an incoming req see (Count)
system.far_mem_ctrl.wrQLenPdf::0                    0                       # What write queue length does an incoming req see (Count)
system.far_mem_ctrl.wrQLenPdf::1                    0                       # What write queue length does an incoming req see (Count)
system.far_mem_ctrl.wrQLenPdf::2                    0                       # What write queue length does an incoming req see (Count)
system.far_mem_ctrl.wrQLenPdf::3                    0                       # What write queue length does an incoming req see (Count)
system.far_mem_ctrl.wrQLenPdf::4                    0                       # What write queue length does an incoming req see (Count)
system.far_mem_ctrl.wrQLenPdf::5                    0                       # What write queue length does an incoming req see (Count)
system.far_mem_ctrl.wrQLenPdf::6                    0                       # What write queue length does an incoming req see (Count)
system.far_mem_ctrl.wrQLenPdf::7                    0                       # What write queue length does an incoming req see (Count)
system.far_mem_ctrl.wrQLenPdf::8                    0                       # What write queue length does an incoming req see (Count)
system.far_mem_ctrl.wrQLenPdf::9                    0                       # What write queue length does an incoming req see (Count)
system.far_mem_ctrl.wrQLenPdf::10                   0                       # What write queue length does an incoming req see (Count)
system.far_mem_ctrl.wrQLenPdf::11                   0                       # What write queue length does an incoming req see (Count)
system.far_mem_ctrl.wrQLenPdf::12                   0                       # What write queue length does an incoming req see (Count)
system.far_mem_ctrl.wrQLenPdf::13                   0                       # What write queue length does an incoming req see (Count)
system.far_mem_ctrl.wrQLenPdf::14                   0                       # What write queue length does an incoming req see (Count)
system.far_mem_ctrl.wrQLenPdf::15                   0                       # What write queue length does an incoming req see (Count)
system.far_mem_ctrl.wrQLenPdf::16                   0                       # What write queue length does an incoming req see (Count)
system.far_mem_ctrl.wrQLenPdf::17                   0                       # What write queue length does an incoming req see (Count)
system.far_mem_ctrl.wrQLenPdf::18                   0                       # What write queue length does an incoming req see (Count)
system.far_mem_ctrl.wrQLenPdf::19                   0                       # What write queue length does an incoming req see (Count)
system.far_mem_ctrl.wrQLenPdf::20                   0                       # What write queue length does an incoming req see (Count)
system.far_mem_ctrl.wrQLenPdf::21                   0                       # What write queue length does an incoming req see (Count)
system.far_mem_ctrl.wrQLenPdf::22                   0                       # What write queue length does an incoming req see (Count)
system.far_mem_ctrl.wrQLenPdf::23                   0                       # What write queue length does an incoming req see (Count)
system.far_mem_ctrl.wrQLenPdf::24                   0                       # What write queue length does an incoming req see (Count)
system.far_mem_ctrl.wrQLenPdf::25                   0                       # What write queue length does an incoming req see (Count)
system.far_mem_ctrl.wrQLenPdf::26                   0                       # What write queue length does an incoming req see (Count)
system.far_mem_ctrl.wrQLenPdf::27                   0                       # What write queue length does an incoming req see (Count)
system.far_mem_ctrl.wrQLenPdf::28                   0                       # What write queue length does an incoming req see (Count)
system.far_mem_ctrl.wrQLenPdf::29                   0                       # What write queue length does an incoming req see (Count)
system.far_mem_ctrl.wrQLenPdf::30                   0                       # What write queue length does an incoming req see (Count)
system.far_mem_ctrl.wrQLenPdf::31                   0                       # What write queue length does an incoming req see (Count)
system.far_mem_ctrl.wrQLenPdf::32                   0                       # What write queue length does an incoming req see (Count)
system.far_mem_ctrl.wrQLenPdf::33                   0                       # What write queue length does an incoming req see (Count)
system.far_mem_ctrl.wrQLenPdf::34                   0                       # What write queue length does an incoming req see (Count)
system.far_mem_ctrl.wrQLenPdf::35                   0                       # What write queue length does an incoming req see (Count)
system.far_mem_ctrl.wrQLenPdf::36                   0                       # What write queue length does an incoming req see (Count)
system.far_mem_ctrl.wrQLenPdf::37                   0                       # What write queue length does an incoming req see (Count)
system.far_mem_ctrl.wrQLenPdf::38                   0                       # What write queue length does an incoming req see (Count)
system.far_mem_ctrl.wrQLenPdf::39                   0                       # What write queue length does an incoming req see (Count)
system.far_mem_ctrl.wrQLenPdf::40                   0                       # What write queue length does an incoming req see (Count)
system.far_mem_ctrl.wrQLenPdf::41                   0                       # What write queue length does an incoming req see (Count)
system.far_mem_ctrl.wrQLenPdf::42                   0                       # What write queue length does an incoming req see (Count)
system.far_mem_ctrl.wrQLenPdf::43                   0                       # What write queue length does an incoming req see (Count)
system.far_mem_ctrl.wrQLenPdf::44                   0                       # What write queue length does an incoming req see (Count)
system.far_mem_ctrl.wrQLenPdf::45                   0                       # What write queue length does an incoming req see (Count)
system.far_mem_ctrl.wrQLenPdf::46                   0                       # What write queue length does an incoming req see (Count)
system.far_mem_ctrl.wrQLenPdf::47                   0                       # What write queue length does an incoming req see (Count)
system.far_mem_ctrl.wrQLenPdf::48                   0                       # What write queue length does an incoming req see (Count)
system.far_mem_ctrl.wrQLenPdf::49                   0                       # What write queue length does an incoming req see (Count)
system.far_mem_ctrl.wrQLenPdf::50                   0                       # What write queue length does an incoming req see (Count)
system.far_mem_ctrl.wrQLenPdf::51                   0                       # What write queue length does an incoming req see (Count)
system.far_mem_ctrl.wrQLenPdf::52                   0                       # What write queue length does an incoming req see (Count)
system.far_mem_ctrl.wrQLenPdf::53                   0                       # What write queue length does an incoming req see (Count)
system.far_mem_ctrl.wrQLenPdf::54                   0                       # What write queue length does an incoming req see (Count)
system.far_mem_ctrl.wrQLenPdf::55                   0                       # What write queue length does an incoming req see (Count)
system.far_mem_ctrl.wrQLenPdf::56                   0                       # What write queue length does an incoming req see (Count)
system.far_mem_ctrl.wrQLenPdf::57                   0                       # What write queue length does an incoming req see (Count)
system.far_mem_ctrl.wrQLenPdf::58                   0                       # What write queue length does an incoming req see (Count)
system.far_mem_ctrl.wrQLenPdf::59                   0                       # What write queue length does an incoming req see (Count)
system.far_mem_ctrl.wrQLenPdf::60                   0                       # What write queue length does an incoming req see (Count)
system.far_mem_ctrl.wrQLenPdf::61                   0                       # What write queue length does an incoming req see (Count)
system.far_mem_ctrl.wrQLenPdf::62                   0                       # What write queue length does an incoming req see (Count)
system.far_mem_ctrl.wrQLenPdf::63                   0                       # What write queue length does an incoming req see (Count)
system.far_mem_ctrl.wrQLenPdf::64                   0                       # What write queue length does an incoming req see (Count)
system.far_mem_ctrl.wrQLenPdf::65                   0                       # What write queue length does an incoming req see (Count)
system.far_mem_ctrl.wrQLenPdf::66                   0                       # What write queue length does an incoming req see (Count)
system.far_mem_ctrl.wrQLenPdf::67                   0                       # What write queue length does an incoming req see (Count)
system.far_mem_ctrl.wrQLenPdf::68                   0                       # What write queue length does an incoming req see (Count)
system.far_mem_ctrl.wrQLenPdf::69                   0                       # What write queue length does an incoming req see (Count)
system.far_mem_ctrl.wrQLenPdf::70                   0                       # What write queue length does an incoming req see (Count)
system.far_mem_ctrl.wrQLenPdf::71                   0                       # What write queue length does an incoming req see (Count)
system.far_mem_ctrl.wrQLenPdf::72                   0                       # What write queue length does an incoming req see (Count)
system.far_mem_ctrl.wrQLenPdf::73                   0                       # What write queue length does an incoming req see (Count)
system.far_mem_ctrl.wrQLenPdf::74                   0                       # What write queue length does an incoming req see (Count)
system.far_mem_ctrl.wrQLenPdf::75                   0                       # What write queue length does an incoming req see (Count)
system.far_mem_ctrl.wrQLenPdf::76                   0                       # What write queue length does an incoming req see (Count)
system.far_mem_ctrl.wrQLenPdf::77                   0                       # What write queue length does an incoming req see (Count)
system.far_mem_ctrl.wrQLenPdf::78                   0                       # What write queue length does an incoming req see (Count)
system.far_mem_ctrl.wrQLenPdf::79                   0                       # What write queue length does an incoming req see (Count)
system.far_mem_ctrl.wrQLenPdf::80                   0                       # What write queue length does an incoming req see (Count)
system.far_mem_ctrl.wrQLenPdf::81                   0                       # What write queue length does an incoming req see (Count)
system.far_mem_ctrl.wrQLenPdf::82                   0                       # What write queue length does an incoming req see (Count)
system.far_mem_ctrl.wrQLenPdf::83                   0                       # What write queue length does an incoming req see (Count)
system.far_mem_ctrl.wrQLenPdf::84                   0                       # What write queue length does an incoming req see (Count)
system.far_mem_ctrl.wrQLenPdf::85                   0                       # What write queue length does an incoming req see (Count)
system.far_mem_ctrl.wrQLenPdf::86                   0                       # What write queue length does an incoming req see (Count)
system.far_mem_ctrl.wrQLenPdf::87                   0                       # What write queue length does an incoming req see (Count)
system.far_mem_ctrl.wrQLenPdf::88                   0                       # What write queue length does an incoming req see (Count)
system.far_mem_ctrl.wrQLenPdf::89                   0                       # What write queue length does an incoming req see (Count)
system.far_mem_ctrl.wrQLenPdf::90                   0                       # What write queue length does an incoming req see (Count)
system.far_mem_ctrl.wrQLenPdf::91                   0                       # What write queue length does an incoming req see (Count)
system.far_mem_ctrl.wrQLenPdf::92                   0                       # What write queue length does an incoming req see (Count)
system.far_mem_ctrl.wrQLenPdf::93                   0                       # What write queue length does an incoming req see (Count)
system.far_mem_ctrl.wrQLenPdf::94                   0                       # What write queue length does an incoming req see (Count)
system.far_mem_ctrl.wrQLenPdf::95                   0                       # What write queue length does an incoming req see (Count)
system.far_mem_ctrl.wrQLenPdf::96                   0                       # What write queue length does an incoming req see (Count)
system.far_mem_ctrl.wrQLenPdf::97                   0                       # What write queue length does an incoming req see (Count)
system.far_mem_ctrl.wrQLenPdf::98                   0                       # What write queue length does an incoming req see (Count)
system.far_mem_ctrl.wrQLenPdf::99                   0                       # What write queue length does an incoming req see (Count)
system.far_mem_ctrl.wrQLenPdf::100                  0                       # What write queue length does an incoming req see (Count)
system.far_mem_ctrl.wrQLenPdf::101                  0                       # What write queue length does an incoming req see (Count)
system.far_mem_ctrl.wrQLenPdf::102                  0                       # What write queue length does an incoming req see (Count)
system.far_mem_ctrl.wrQLenPdf::103                  0                       # What write queue length does an incoming req see (Count)
system.far_mem_ctrl.wrQLenPdf::104                  0                       # What write queue length does an incoming req see (Count)
system.far_mem_ctrl.wrQLenPdf::105                  0                       # What write queue length does an incoming req see (Count)
system.far_mem_ctrl.wrQLenPdf::106                  0                       # What write queue length does an incoming req see (Count)
system.far_mem_ctrl.wrQLenPdf::107                  0                       # What write queue length does an incoming req see (Count)
system.far_mem_ctrl.wrQLenPdf::108                  0                       # What write queue length does an incoming req see (Count)
system.far_mem_ctrl.wrQLenPdf::109                  0                       # What write queue length does an incoming req see (Count)
system.far_mem_ctrl.wrQLenPdf::110                  0                       # What write queue length does an incoming req see (Count)
system.far_mem_ctrl.wrQLenPdf::111                  0                       # What write queue length does an incoming req see (Count)
system.far_mem_ctrl.wrQLenPdf::112                  0                       # What write queue length does an incoming req see (Count)
system.far_mem_ctrl.wrQLenPdf::113                  0                       # What write queue length does an incoming req see (Count)
system.far_mem_ctrl.wrQLenPdf::114                  0                       # What write queue length does an incoming req see (Count)
system.far_mem_ctrl.wrQLenPdf::115                  0                       # What write queue length does an incoming req see (Count)
system.far_mem_ctrl.wrQLenPdf::116                  0                       # What write queue length does an incoming req see (Count)
system.far_mem_ctrl.wrQLenPdf::117                  0                       # What write queue length does an incoming req see (Count)
system.far_mem_ctrl.wrQLenPdf::118                  0                       # What write queue length does an incoming req see (Count)
system.far_mem_ctrl.wrQLenPdf::119                  0                       # What write queue length does an incoming req see (Count)
system.far_mem_ctrl.wrQLenPdf::120                  0                       # What write queue length does an incoming req see (Count)
system.far_mem_ctrl.wrQLenPdf::121                  0                       # What write queue length does an incoming req see (Count)
system.far_mem_ctrl.wrQLenPdf::122                  0                       # What write queue length does an incoming req see (Count)
system.far_mem_ctrl.wrQLenPdf::123                  0                       # What write queue length does an incoming req see (Count)
system.far_mem_ctrl.wrQLenPdf::124                  0                       # What write queue length does an incoming req see (Count)
system.far_mem_ctrl.wrQLenPdf::125                  0                       # What write queue length does an incoming req see (Count)
system.far_mem_ctrl.wrQLenPdf::126                  0                       # What write queue length does an incoming req see (Count)
system.far_mem_ctrl.wrQLenPdf::127                  0                       # What write queue length does an incoming req see (Count)
system.far_mem_ctrl.bytesReadWrQ                    0                       # Total number of bytes read from write queue (Byte)
system.far_mem_ctrl.bytesReadSys                    0                       # Total read bytes from the system interface side (Byte)
system.far_mem_ctrl.bytesWrittenSys                 0                       # Total written bytes from the system interface side (Byte)
system.far_mem_ctrl.avgRdBWSys             0.00000000                       # Average system read bandwidth in Byte/s ((Byte/Second))
system.far_mem_ctrl.avgWrBWSys             0.00000000                       # Average system write bandwidth in Byte/s ((Byte/Second))
system.far_mem_ctrl.totGap                          0                       # Total gap between requests (Tick)
system.far_mem_ctrl.avgGap                        nan                       # Average gap between requests ((Tick/Count))
system.far_mem_ctrl.dram.readBursts                 0                       # Number of DRAM read bursts (Count)
system.far_mem_ctrl.dram.writeBursts                0                       # Number of DRAM write bursts (Count)
system.far_mem_ctrl.dram.perBankRdBursts::0            0                       # Per bank write bursts (Count)
system.far_mem_ctrl.dram.perBankRdBursts::1            0                       # Per bank write bursts (Count)
system.far_mem_ctrl.dram.perBankRdBursts::2            0                       # Per bank write bursts (Count)
system.far_mem_ctrl.dram.perBankRdBursts::3            0                       # Per bank write bursts (Count)
system.far_mem_ctrl.dram.perBankRdBursts::4            0                       # Per bank write bursts (Count)
system.far_mem_ctrl.dram.perBankRdBursts::5            0                       # Per bank write bursts (Count)
system.far_mem_ctrl.dram.perBankRdBursts::6            0                       # Per bank write bursts (Count)
system.far_mem_ctrl.dram.perBankRdBursts::7            0                       # Per bank write bursts (Count)
system.far_mem_ctrl.dram.perBankRdBursts::8            0                       # Per bank write bursts (Count)
system.far_mem_ctrl.dram.perBankRdBursts::9            0                       # Per bank write bursts (Count)
system.far_mem_ctrl.dram.perBankRdBursts::10            0                       # Per bank write bursts (Count)
system.far_mem_ctrl.dram.perBankRdBursts::11            0                       # Per bank write bursts (Count)
system.far_mem_ctrl.dram.perBankRdBursts::12            0                       # Per bank write bursts (Count)
system.far_mem_ctrl.dram.perBankRdBursts::13            0                       # Per bank write bursts (Count)
system.far_mem_ctrl.dram.perBankRdBursts::14            0                       # Per bank write bursts (Count)
system.far_mem_ctrl.dram.perBankRdBursts::15            0                       # Per bank write bursts (Count)
system.far_mem_ctrl.dram.perBankRdBursts::16            0                       # Per bank write bursts (Count)
system.far_mem_ctrl.dram.perBankRdBursts::17            0                       # Per bank write bursts (Count)
system.far_mem_ctrl.dram.perBankRdBursts::18            0                       # Per bank write bursts (Count)
system.far_mem_ctrl.dram.perBankRdBursts::19            0                       # Per bank write bursts (Count)
system.far_mem_ctrl.dram.perBankRdBursts::20            0                       # Per bank write bursts (Count)
system.far_mem_ctrl.dram.perBankRdBursts::21            0                       # Per bank write bursts (Count)
system.far_mem_ctrl.dram.perBankRdBursts::22            0                       # Per bank write bursts (Count)
system.far_mem_ctrl.dram.perBankRdBursts::23            0                       # Per bank write bursts (Count)
system.far_mem_ctrl.dram.perBankRdBursts::24            0                       # Per bank write bursts (Count)
system.far_mem_ctrl.dram.perBankRdBursts::25            0                       # Per bank write bursts (Count)
system.far_mem_ctrl.dram.perBankRdBursts::26            0                       # Per bank write bursts (Count)
system.far_mem_ctrl.dram.perBankRdBursts::27            0                       # Per bank write bursts (Count)
system.far_mem_ctrl.dram.perBankRdBursts::28            0                       # Per bank write bursts (Count)
system.far_mem_ctrl.dram.perBankRdBursts::29            0                       # Per bank write bursts (Count)
system.far_mem_ctrl.dram.perBankRdBursts::30            0                       # Per bank write bursts (Count)
system.far_mem_ctrl.dram.perBankRdBursts::31            0                       # Per bank write bursts (Count)
system.far_mem_ctrl.dram.perBankWrBursts::0            0                       # Per bank write bursts (Count)
system.far_mem_ctrl.dram.perBankWrBursts::1            0                       # Per bank write bursts (Count)
system.far_mem_ctrl.dram.perBankWrBursts::2            0                       # Per bank write bursts (Count)
system.far_mem_ctrl.dram.perBankWrBursts::3            0                       # Per bank write bursts (Count)
system.far_mem_ctrl.dram.perBankWrBursts::4            0                       # Per bank write bursts (Count)
system.far_mem_ctrl.dram.perBankWrBursts::5            0                       # Per bank write bursts (Count)
system.far_mem_ctrl.dram.perBankWrBursts::6            0                       # Per bank write bursts (Count)
system.far_mem_ctrl.dram.perBankWrBursts::7            0                       # Per bank write bursts (Count)
system.far_mem_ctrl.dram.perBankWrBursts::8            0                       # Per bank write bursts (Count)
system.far_mem_ctrl.dram.perBankWrBursts::9            0                       # Per bank write bursts (Count)
system.far_mem_ctrl.dram.perBankWrBursts::10            0                       # Per bank write bursts (Count)
system.far_mem_ctrl.dram.perBankWrBursts::11            0                       # Per bank write bursts (Count)
system.far_mem_ctrl.dram.perBankWrBursts::12            0                       # Per bank write bursts (Count)
system.far_mem_ctrl.dram.perBankWrBursts::13            0                       # Per bank write bursts (Count)
system.far_mem_ctrl.dram.perBankWrBursts::14            0                       # Per bank write bursts (Count)
system.far_mem_ctrl.dram.perBankWrBursts::15            0                       # Per bank write bursts (Count)
system.far_mem_ctrl.dram.perBankWrBursts::16            0                       # Per bank write bursts (Count)
system.far_mem_ctrl.dram.perBankWrBursts::17            0                       # Per bank write bursts (Count)
system.far_mem_ctrl.dram.perBankWrBursts::18            0                       # Per bank write bursts (Count)
system.far_mem_ctrl.dram.perBankWrBursts::19            0                       # Per bank write bursts (Count)
system.far_mem_ctrl.dram.perBankWrBursts::20            0                       # Per bank write bursts (Count)
system.far_mem_ctrl.dram.perBankWrBursts::21            0                       # Per bank write bursts (Count)
system.far_mem_ctrl.dram.perBankWrBursts::22            0                       # Per bank write bursts (Count)
system.far_mem_ctrl.dram.perBankWrBursts::23            0                       # Per bank write bursts (Count)
system.far_mem_ctrl.dram.perBankWrBursts::24            0                       # Per bank write bursts (Count)
system.far_mem_ctrl.dram.perBankWrBursts::25            0                       # Per bank write bursts (Count)
system.far_mem_ctrl.dram.perBankWrBursts::26            0                       # Per bank write bursts (Count)
system.far_mem_ctrl.dram.perBankWrBursts::27            0                       # Per bank write bursts (Count)
system.far_mem_ctrl.dram.perBankWrBursts::28            0                       # Per bank write bursts (Count)
system.far_mem_ctrl.dram.perBankWrBursts::29            0                       # Per bank write bursts (Count)
system.far_mem_ctrl.dram.perBankWrBursts::30            0                       # Per bank write bursts (Count)
system.far_mem_ctrl.dram.perBankWrBursts::31            0                       # Per bank write bursts (Count)
system.far_mem_ctrl.dram.totQLat                    0                       # Total ticks spent queuing (Tick)
system.far_mem_ctrl.dram.totBusLat                  0                       # Total ticks spent in databus transfers (Tick)
system.far_mem_ctrl.dram.totMemAccLat               0                       # Total ticks spent from burst creation until serviced by the DRAM (Tick)
system.far_mem_ctrl.dram.avgQLat                  nan                       # Average queueing delay per DRAM burst ((Tick/Count))
system.far_mem_ctrl.dram.avgBusLat                nan                       # Average bus latency per DRAM burst ((Tick/Count))
system.far_mem_ctrl.dram.avgMemAccLat             nan                       # Average memory access latency per DRAM burst ((Tick/Count))
system.far_mem_ctrl.dram.readRowHits                0                       # Number of row buffer hits during reads (Count)
system.far_mem_ctrl.dram.writeRowHits               0                       # Number of row buffer hits during writes (Count)
system.far_mem_ctrl.dram.readRowHitRate           nan                       # Row buffer hit rate for reads (Ratio)
system.far_mem_ctrl.dram.writeRowHitRate          nan                       # Row buffer hit rate for writes (Ratio)
system.far_mem_ctrl.dram.bytesRead                  0                       # Total bytes read (Byte)
system.far_mem_ctrl.dram.bytesWritten               0                       # Total bytes written (Byte)
system.far_mem_ctrl.dram.avgRdBW                    0                       # Average DRAM read bandwidth in MiBytes/s ((Byte/Second))
system.far_mem_ctrl.dram.avgWrBW                    0                       # Average DRAM write bandwidth in MiBytes/s ((Byte/Second))
system.far_mem_ctrl.dram.peakBW              19207.00                       # Theoretical peak bandwidth in MiByte/s ((Byte/Second))
system.far_mem_ctrl.dram.busUtil                 0.00                       # Data bus utilization in percentage (Ratio)
system.far_mem_ctrl.dram.busUtilRead             0.00                       # Data bus utilization in percentage for reads (Ratio)
system.far_mem_ctrl.dram.busUtilWrite            0.00                       # Data bus utilization in percentage for writes (Ratio)
system.far_mem_ctrl.dram.pageHitRate              nan                       # Row buffer hit rate, read and write combined (Ratio)
system.far_mem_ctrl.dram.power_state.pwrStateResidencyTicks::UNDEFINED  10000004000                       # Cumulative time (in ticks) in various power states (Tick)
system.far_mem_ctrl.dram.rank0.actEnergy            0                       # Energy for activate commands per rank (pJ) (Joule)
system.far_mem_ctrl.dram.rank0.preEnergy            0                       # Energy for precharge commands per rank (pJ) (Joule)
system.far_mem_ctrl.dram.rank0.readEnergy            0                       # Energy for read commands per rank (pJ) (Joule)
system.far_mem_ctrl.dram.rank0.writeEnergy            0                       # Energy for write commands per rank (pJ) (Joule)
system.far_mem_ctrl.dram.rank0.refreshEnergy 1778824873.324749                       # Energy for refresh commands per rank (pJ) (Joule)
system.far_mem_ctrl.dram.rank0.actBackEnergy 367118181.964789                       # Energy for active background per rank (pJ) (Joule)
system.far_mem_ctrl.dram.rank0.preBackEnergy 6245923254.950333                       # Energy for precharge background per rank (pJ) (Joule)
system.far_mem_ctrl.dram.rank0.actPowerDownEnergy            0                       # Energy for active power-down per rank (pJ) (Joule)
system.far_mem_ctrl.dram.rank0.prePowerDownEnergy            0                       # Energy for precharge power-down per rank (pJ) (Joule)
system.far_mem_ctrl.dram.rank0.selfRefreshEnergy            0                       # Energy for self refresh per rank (pJ) (Joule)
system.far_mem_ctrl.dram.rank0.totalEnergy 8391866310.239892                       # Total energy per rank (pJ) (Joule)
system.far_mem_ctrl.dram.rank0.averagePower   839.186295                       # Core power per rank (mW) (Watt)
system.far_mem_ctrl.dram.rank0.totalIdleTime            0                       # Total Idle time Per DRAM Rank (Tick)
system.far_mem_ctrl.dram.rank0.pwrStateTime::IDLE   9550604000                       # Time in different power states (Tick)
system.far_mem_ctrl.dram.rank0.pwrStateTime::REF    449400000                       # Time in different power states (Tick)
system.far_mem_ctrl.dram.rank0.pwrStateTime::SREF            0                       # Time in different power states (Tick)
system.far_mem_ctrl.dram.rank0.pwrStateTime::PRE_PDN            0                       # Time in different power states (Tick)
system.far_mem_ctrl.dram.rank0.pwrStateTime::ACT            0                       # Time in different power states (Tick)
system.far_mem_ctrl.dram.rank0.pwrStateTime::ACT_PDN            0                       # Time in different power states (Tick)
system.far_mem_ctrl.dram.rank1.actEnergy            0                       # Energy for activate commands per rank (pJ) (Joule)
system.far_mem_ctrl.dram.rank1.preEnergy            0                       # Energy for precharge commands per rank (pJ) (Joule)
system.far_mem_ctrl.dram.rank1.readEnergy            0                       # Energy for read commands per rank (pJ) (Joule)
system.far_mem_ctrl.dram.rank1.writeEnergy            0                       # Energy for write commands per rank (pJ) (Joule)
system.far_mem_ctrl.dram.rank1.refreshEnergy 1778824873.324749                       # Energy for refresh commands per rank (pJ) (Joule)
system.far_mem_ctrl.dram.rank1.actBackEnergy 367118181.964789                       # Energy for active background per rank (pJ) (Joule)
system.far_mem_ctrl.dram.rank1.preBackEnergy 6245923254.950333                       # Energy for precharge background per rank (pJ) (Joule)
system.far_mem_ctrl.dram.rank1.actPowerDownEnergy            0                       # Energy for active power-down per rank (pJ) (Joule)
system.far_mem_ctrl.dram.rank1.prePowerDownEnergy            0                       # Energy for precharge power-down per rank (pJ) (Joule)
system.far_mem_ctrl.dram.rank1.selfRefreshEnergy            0                       # Energy for self refresh per rank (pJ) (Joule)
system.far_mem_ctrl.dram.rank1.totalEnergy 8391866310.239892                       # Total energy per rank (pJ) (Joule)
system.far_mem_ctrl.dram.rank1.averagePower   839.186295                       # Core power per rank (mW) (Watt)
system.far_mem_ctrl.dram.rank1.totalIdleTime            0                       # Total Idle time Per DRAM Rank (Tick)
system.far_mem_ctrl.dram.rank1.pwrStateTime::IDLE   9550604000                       # Time in different power states (Tick)
system.far_mem_ctrl.dram.rank1.pwrStateTime::REF    449400000                       # Time in different power states (Tick)
system.far_mem_ctrl.dram.rank1.pwrStateTime::SREF            0                       # Time in different power states (Tick)
system.far_mem_ctrl.dram.rank1.pwrStateTime::PRE_PDN            0                       # Time in different power states (Tick)
system.far_mem_ctrl.dram.rank1.pwrStateTime::ACT            0                       # Time in different power states (Tick)
system.far_mem_ctrl.dram.rank1.pwrStateTime::ACT_PDN            0                       # Time in different power states (Tick)
system.far_mem_ctrl.power_state.pwrStateResidencyTicks::UNDEFINED  10000004000                       # Cumulative time (in ticks) in various power states (Tick)
system.generator.numSuppressed                      0                       # Number of suppressed packets to non-memory space (Count)
system.generator.numPackets                   4312089                       # Number of packets generated (Count)
system.generator.numRetries                   4310294                       # Number of retries (Count)
system.generator.retryTicks                9227046567                       # Time spent waiting due to back-pressure (Tick)
system.generator.bytesRead                  275956800                       # Number of bytes read (Byte)
system.generator.bytesWritten                       0                       # Number of bytes written (Byte)
system.generator.totalReadLatency        2655665728031                       # Total latency of read requests (Tick)
system.generator.totalWriteLatency                  0                       # Total latency of write requests (Tick)
system.generator.totalReads                   4311825                       # Total num of reads (Count)
system.generator.totalWrites                        0                       # Total num of writes (Count)
system.generator.avgReadLatency          615902.947831                       # Avg latency of read requests ((Tick/Count))
system.generator.avgWriteLatency                  nan                       # Avg latency of write requests ((Tick/Count))
system.generator.readBW                  27595668961.732414                       # Read bandwidth ((Byte/Second))
system.generator.writeBW                            0                       # Write bandwidth ((Byte/Second))
system.generator.power_state.pwrStateResidencyTicks::UNDEFINED  10000004000                       # Cumulative time (in ticks) in various power states (Tick)
system.loc_mem_ctrl.avgPriority_writebacks::samples   8623776.00                       # Average QoS priority value for accepted requests (Count)
system.loc_mem_ctrl.priorityMinLatency   0.000000032000                       # per QoS priority minimum request to response latency (Second)
system.loc_mem_ctrl.priorityMaxLatency   0.000001698000                       # per QoS priority maximum request to response latency (Second)
system.loc_mem_ctrl.numReadWriteTurnArounds            0                       # Number of turnarounds from READ to WRITE (Count)
system.loc_mem_ctrl.numWriteReadTurnArounds            0                       # Number of turnarounds from WRITE to READ (Count)
system.loc_mem_ctrl.numStayReadState          8684964                       # Number of times bus staying in READ state (Count)
system.loc_mem_ctrl.numStayWriteState               0                       # Number of times bus staying in WRITE state (Count)
system.loc_mem_ctrl.readReqs                  4311888                       # Number of read requests accepted (Count)
system.loc_mem_ctrl.writeReqs                       0                       # Number of write requests accepted (Count)
system.loc_mem_ctrl.readBursts                8623776                       # Number of controller read bursts, including those serviced by the write queue (Count)
system.loc_mem_ctrl.writeBursts                     0                       # Number of controller write bursts, including those merged in the write queue (Count)
system.loc_mem_ctrl.servicedByWrQ                   0                       # Number of controller read bursts serviced by the write queue (Count)
system.loc_mem_ctrl.mergedWrBursts                  0                       # Number of controller write bursts merged with an existing one (Count)
system.loc_mem_ctrl.avgRdQLen                   91.60                       # Average read queue length when enqueuing ((Count/Tick))
system.loc_mem_ctrl.avgWrQLen                    0.00                       # Average write queue length when enqueuing ((Count/Tick))
system.loc_mem_ctrl.numRdRetry                6395348                       # Number of times read queue was full causing retry (Count)
system.loc_mem_ctrl.numWrRetry                      0                       # Number of times write queue was full causing retry (Count)
system.loc_mem_ctrl.readPktSize::0                  0                       # Read request sizes (log2) (Count)
system.loc_mem_ctrl.readPktSize::1                  0                       # Read request sizes (log2) (Count)
system.loc_mem_ctrl.readPktSize::2                  0                       # Read request sizes (log2) (Count)
system.loc_mem_ctrl.readPktSize::3                  0                       # Read request sizes (log2) (Count)
system.loc_mem_ctrl.readPktSize::4                  0                       # Read request sizes (log2) (Count)
system.loc_mem_ctrl.readPktSize::5            8623776                       # Read request sizes (log2) (Count)
system.loc_mem_ctrl.readPktSize::6                  0                       # Read request sizes (log2) (Count)
system.loc_mem_ctrl.writePktSize::0                 0                       # Write request sizes (log2) (Count)
system.loc_mem_ctrl.writePktSize::1                 0                       # Write request sizes (log2) (Count)
system.loc_mem_ctrl.writePktSize::2                 0                       # Write request sizes (log2) (Count)
system.loc_mem_ctrl.writePktSize::3                 0                       # Write request sizes (log2) (Count)
system.loc_mem_ctrl.writePktSize::4                 0                       # Write request sizes (log2) (Count)
system.loc_mem_ctrl.writePktSize::5                 0                       # Write request sizes (log2) (Count)
system.loc_mem_ctrl.writePktSize::6                 0                       # Write request sizes (log2) (Count)
system.loc_mem_ctrl.rdQLenPdf::0                    1                       # What read queue length does an incoming req see (Count)
system.loc_mem_ctrl.rdQLenPdf::1                    1                       # What read queue length does an incoming req see (Count)
system.loc_mem_ctrl.rdQLenPdf::2                    1                       # What read queue length does an incoming req see (Count)
system.loc_mem_ctrl.rdQLenPdf::3                    1                       # What read queue length does an incoming req see (Count)
system.loc_mem_ctrl.rdQLenPdf::4                    1                       # What read queue length does an incoming req see (Count)
system.loc_mem_ctrl.rdQLenPdf::5                    1                       # What read queue length does an incoming req see (Count)
system.loc_mem_ctrl.rdQLenPdf::6                    1                       # What read queue length does an incoming req see (Count)
system.loc_mem_ctrl.rdQLenPdf::7                    1                       # What read queue length does an incoming req see (Count)
system.loc_mem_ctrl.rdQLenPdf::8                    1                       # What read queue length does an incoming req see (Count)
system.loc_mem_ctrl.rdQLenPdf::9                    1                       # What read queue length does an incoming req see (Count)
system.loc_mem_ctrl.rdQLenPdf::10                   1                       # What read queue length does an incoming req see (Count)
system.loc_mem_ctrl.rdQLenPdf::11                   1                       # What read queue length does an incoming req see (Count)
system.loc_mem_ctrl.rdQLenPdf::12                   1                       # What read queue length does an incoming req see (Count)
system.loc_mem_ctrl.rdQLenPdf::13                   1                       # What read queue length does an incoming req see (Count)
system.loc_mem_ctrl.rdQLenPdf::14                   1                       # What read queue length does an incoming req see (Count)
system.loc_mem_ctrl.rdQLenPdf::15                   1                       # What read queue length does an incoming req see (Count)
system.loc_mem_ctrl.rdQLenPdf::16                   1                       # What read queue length does an incoming req see (Count)
system.loc_mem_ctrl.rdQLenPdf::17                   1                       # What read queue length does an incoming req see (Count)
system.loc_mem_ctrl.rdQLenPdf::18                   1                       # What read queue length does an incoming req see (Count)
system.loc_mem_ctrl.rdQLenPdf::19                   1                       # What read queue length does an incoming req see (Count)
system.loc_mem_ctrl.rdQLenPdf::20                   3                       # What read queue length does an incoming req see (Count)
system.loc_mem_ctrl.rdQLenPdf::21                   3                       # What read queue length does an incoming req see (Count)
system.loc_mem_ctrl.rdQLenPdf::22                   2                       # What read queue length does an incoming req see (Count)
system.loc_mem_ctrl.rdQLenPdf::23                   3                       # What read queue length does an incoming req see (Count)
system.loc_mem_ctrl.rdQLenPdf::24                   1                       # What read queue length does an incoming req see (Count)
system.loc_mem_ctrl.rdQLenPdf::25                   1                       # What read queue length does an incoming req see (Count)
system.loc_mem_ctrl.rdQLenPdf::26                   2                       # What read queue length does an incoming req see (Count)
system.loc_mem_ctrl.rdQLenPdf::27                   1                       # What read queue length does an incoming req see (Count)
system.loc_mem_ctrl.rdQLenPdf::28                   1                       # What read queue length does an incoming req see (Count)
system.loc_mem_ctrl.rdQLenPdf::29                   1                       # What read queue length does an incoming req see (Count)
system.loc_mem_ctrl.rdQLenPdf::30                   1                       # What read queue length does an incoming req see (Count)
system.loc_mem_ctrl.rdQLenPdf::31                   2                       # What read queue length does an incoming req see (Count)
system.loc_mem_ctrl.rdQLenPdf::32                   1                       # What read queue length does an incoming req see (Count)
system.loc_mem_ctrl.rdQLenPdf::33                   1                       # What read queue length does an incoming req see (Count)
system.loc_mem_ctrl.rdQLenPdf::34                   2                       # What read queue length does an incoming req see (Count)
system.loc_mem_ctrl.rdQLenPdf::35                   1                       # What read queue length does an incoming req see (Count)
system.loc_mem_ctrl.rdQLenPdf::36                   1                       # What read queue length does an incoming req see (Count)
system.loc_mem_ctrl.rdQLenPdf::37                   1                       # What read queue length does an incoming req see (Count)
system.loc_mem_ctrl.rdQLenPdf::38                   1                       # What read queue length does an incoming req see (Count)
system.loc_mem_ctrl.rdQLenPdf::39                   2                       # What read queue length does an incoming req see (Count)
system.loc_mem_ctrl.rdQLenPdf::40                   1                       # What read queue length does an incoming req see (Count)
system.loc_mem_ctrl.rdQLenPdf::41                   1                       # What read queue length does an incoming req see (Count)
system.loc_mem_ctrl.rdQLenPdf::42                   3                       # What read queue length does an incoming req see (Count)
system.loc_mem_ctrl.rdQLenPdf::43                   5                       # What read queue length does an incoming req see (Count)
system.loc_mem_ctrl.rdQLenPdf::44                  16                       # What read queue length does an incoming req see (Count)
system.loc_mem_ctrl.rdQLenPdf::45                  40                       # What read queue length does an incoming req see (Count)
system.loc_mem_ctrl.rdQLenPdf::46                  93                       # What read queue length does an incoming req see (Count)
system.loc_mem_ctrl.rdQLenPdf::47                 150                       # What read queue length does an incoming req see (Count)
system.loc_mem_ctrl.rdQLenPdf::48                 234                       # What read queue length does an incoming req see (Count)
system.loc_mem_ctrl.rdQLenPdf::49                 362                       # What read queue length does an incoming req see (Count)
system.loc_mem_ctrl.rdQLenPdf::50                 587                       # What read queue length does an incoming req see (Count)
system.loc_mem_ctrl.rdQLenPdf::51                 771                       # What read queue length does an incoming req see (Count)
system.loc_mem_ctrl.rdQLenPdf::52                1170                       # What read queue length does an incoming req see (Count)
system.loc_mem_ctrl.rdQLenPdf::53                1603                       # What read queue length does an incoming req see (Count)
system.loc_mem_ctrl.rdQLenPdf::54                2216                       # What read queue length does an incoming req see (Count)
system.loc_mem_ctrl.rdQLenPdf::55                2967                       # What read queue length does an incoming req see (Count)
system.loc_mem_ctrl.rdQLenPdf::56                4075                       # What read queue length does an incoming req see (Count)
system.loc_mem_ctrl.rdQLenPdf::57                5319                       # What read queue length does an incoming req see (Count)
system.loc_mem_ctrl.rdQLenPdf::58                6657                       # What read queue length does an incoming req see (Count)
system.loc_mem_ctrl.rdQLenPdf::59                8200                       # What read queue length does an incoming req see (Count)
system.loc_mem_ctrl.rdQLenPdf::60               10096                       # What read queue length does an incoming req see (Count)
system.loc_mem_ctrl.rdQLenPdf::61               12622                       # What read queue length does an incoming req see (Count)
system.loc_mem_ctrl.rdQLenPdf::62               16459                       # What read queue length does an incoming req see (Count)
system.loc_mem_ctrl.rdQLenPdf::63               21763                       # What read queue length does an incoming req see (Count)
system.loc_mem_ctrl.rdQLenPdf::64               26365                       # What read queue length does an incoming req see (Count)
system.loc_mem_ctrl.rdQLenPdf::65               33773                       # What read queue length does an incoming req see (Count)
system.loc_mem_ctrl.rdQLenPdf::66               39348                       # What read queue length does an incoming req see (Count)
system.loc_mem_ctrl.rdQLenPdf::67               48465                       # What read queue length does an incoming req see (Count)
system.loc_mem_ctrl.rdQLenPdf::68               57392                       # What read queue length does an incoming req see (Count)
system.loc_mem_ctrl.rdQLenPdf::69               68389                       # What read queue length does an incoming req see (Count)
system.loc_mem_ctrl.rdQLenPdf::70               80173                       # What read queue length does an incoming req see (Count)
system.loc_mem_ctrl.rdQLenPdf::71               91865                       # What read queue length does an incoming req see (Count)
system.loc_mem_ctrl.rdQLenPdf::72              105594                       # What read queue length does an incoming req see (Count)
system.loc_mem_ctrl.rdQLenPdf::73              118310                       # What read queue length does an incoming req see (Count)
system.loc_mem_ctrl.rdQLenPdf::74              132241                       # What read queue length does an incoming req see (Count)
system.loc_mem_ctrl.rdQLenPdf::75              144624                       # What read queue length does an incoming req see (Count)
system.loc_mem_ctrl.rdQLenPdf::76              158450                       # What read queue length does an incoming req see (Count)
system.loc_mem_ctrl.rdQLenPdf::77              170048                       # What read queue length does an incoming req see (Count)
system.loc_mem_ctrl.rdQLenPdf::78              183563                       # What read queue length does an incoming req see (Count)
system.loc_mem_ctrl.rdQLenPdf::79              194335                       # What read queue length does an incoming req see (Count)
system.loc_mem_ctrl.rdQLenPdf::80              207027                       # What read queue length does an incoming req see (Count)
system.loc_mem_ctrl.rdQLenPdf::81              217463                       # What read queue length does an incoming req see (Count)
system.loc_mem_ctrl.rdQLenPdf::82              228131                       # What read queue length does an incoming req see (Count)
system.loc_mem_ctrl.rdQLenPdf::83              236585                       # What read queue length does an incoming req see (Count)
system.loc_mem_ctrl.rdQLenPdf::84              245801                       # What read queue length does an incoming req see (Count)
system.loc_mem_ctrl.rdQLenPdf::85              253270                       # What read queue length does an incoming req see (Count)
system.loc_mem_ctrl.rdQLenPdf::86              261274                       # What read queue length does an incoming req see (Count)
system.loc_mem_ctrl.rdQLenPdf::87              266774                       # What read queue length does an incoming req see (Count)
system.loc_mem_ctrl.rdQLenPdf::88              272177                       # What read queue length does an incoming req see (Count)
system.loc_mem_ctrl.rdQLenPdf::89              276736                       # What read queue length does an incoming req see (Count)
system.loc_mem_ctrl.rdQLenPdf::90              280720                       # What read queue length does an incoming req see (Count)
system.loc_mem_ctrl.rdQLenPdf::91              284546                       # What read queue length does an incoming req see (Count)
system.loc_mem_ctrl.rdQLenPdf::92              287675                       # What read queue length does an incoming req see (Count)
system.loc_mem_ctrl.rdQLenPdf::93              290384                       # What read queue length does an incoming req see (Count)
system.loc_mem_ctrl.rdQLenPdf::94              292767                       # What read queue length does an incoming req see (Count)
system.loc_mem_ctrl.rdQLenPdf::95              293798                       # What read queue length does an incoming req see (Count)
system.loc_mem_ctrl.rdQLenPdf::96              296758                       # What read queue length does an incoming req see (Count)
system.loc_mem_ctrl.rdQLenPdf::97              299325                       # What read queue length does an incoming req see (Count)
system.loc_mem_ctrl.rdQLenPdf::98              300638                       # What read queue length does an incoming req see (Count)
system.loc_mem_ctrl.rdQLenPdf::99              301725                       # What read queue length does an incoming req see (Count)
system.loc_mem_ctrl.rdQLenPdf::100             301823                       # What read queue length does an incoming req see (Count)
system.loc_mem_ctrl.rdQLenPdf::101             300564                       # What read queue length does an incoming req see (Count)
system.loc_mem_ctrl.rdQLenPdf::102             292761                       # What read queue length does an incoming req see (Count)
system.loc_mem_ctrl.rdQLenPdf::103             267198                       # What read queue length does an incoming req see (Count)
system.loc_mem_ctrl.rdQLenPdf::104             187529                       # What read queue length does an incoming req see (Count)
system.loc_mem_ctrl.rdQLenPdf::105              75708                       # What read queue length does an incoming req see (Count)
system.loc_mem_ctrl.rdQLenPdf::106              12964                       # What read queue length does an incoming req see (Count)
system.loc_mem_ctrl.rdQLenPdf::107               7610                       # What read queue length does an incoming req see (Count)
system.loc_mem_ctrl.rdQLenPdf::108               4790                       # What read queue length does an incoming req see (Count)
system.loc_mem_ctrl.rdQLenPdf::109               3939                       # What read queue length does an incoming req see (Count)
system.loc_mem_ctrl.rdQLenPdf::110               3195                       # What read queue length does an incoming req see (Count)
system.loc_mem_ctrl.rdQLenPdf::111               2899                       # What read queue length does an incoming req see (Count)
system.loc_mem_ctrl.rdQLenPdf::112               2676                       # What read queue length does an incoming req see (Count)
system.loc_mem_ctrl.rdQLenPdf::113               2492                       # What read queue length does an incoming req see (Count)
system.loc_mem_ctrl.rdQLenPdf::114               2347                       # What read queue length does an incoming req see (Count)
system.loc_mem_ctrl.rdQLenPdf::115               2161                       # What read queue length does an incoming req see (Count)
system.loc_mem_ctrl.rdQLenPdf::116               1931                       # What read queue length does an incoming req see (Count)
system.loc_mem_ctrl.rdQLenPdf::117               1722                       # What read queue length does an incoming req see (Count)
system.loc_mem_ctrl.rdQLenPdf::118               1484                       # What read queue length does an incoming req see (Count)
system.loc_mem_ctrl.rdQLenPdf::119               1362                       # What read queue length does an incoming req see (Count)
system.loc_mem_ctrl.rdQLenPdf::120               1180                       # What read queue length does an incoming req see (Count)
system.loc_mem_ctrl.rdQLenPdf::121                990                       # What read queue length does an incoming req see (Count)
system.loc_mem_ctrl.rdQLenPdf::122                838                       # What read queue length does an incoming req see (Count)
system.loc_mem_ctrl.rdQLenPdf::123                633                       # What read queue length does an incoming req see (Count)
system.loc_mem_ctrl.rdQLenPdf::124                475                       # What read queue length does an incoming req see (Count)
system.loc_mem_ctrl.rdQLenPdf::125                312                       # What read queue length does an incoming req see (Count)
system.loc_mem_ctrl.rdQLenPdf::126                169                       # What read queue length does an incoming req see (Count)
system.loc_mem_ctrl.rdQLenPdf::127                 54                       # What read queue length does an incoming req see (Count)
system.loc_mem_ctrl.wrQLenPdf::0                    0                       # What write queue length does an incoming req see (Count)
system.loc_mem_ctrl.wrQLenPdf::1                    0                       # What write queue length does an incoming req see (Count)
system.loc_mem_ctrl.wrQLenPdf::2                    0                       # What write queue length does an incoming req see (Count)
system.loc_mem_ctrl.wrQLenPdf::3                    0                       # What write queue length does an incoming req see (Count)
system.loc_mem_ctrl.wrQLenPdf::4                    0                       # What write queue length does an incoming req see (Count)
system.loc_mem_ctrl.wrQLenPdf::5                    0                       # What write queue length does an incoming req see (Count)
system.loc_mem_ctrl.wrQLenPdf::6                    0                       # What write queue length does an incoming req see (Count)
system.loc_mem_ctrl.wrQLenPdf::7                    0                       # What write queue length does an incoming req see (Count)
system.loc_mem_ctrl.wrQLenPdf::8                    0                       # What write queue length does an incoming req see (Count)
system.loc_mem_ctrl.wrQLenPdf::9                    0                       # What write queue length does an incoming req see (Count)
system.loc_mem_ctrl.wrQLenPdf::10                   0                       # What write queue length does an incoming req see (Count)
system.loc_mem_ctrl.wrQLenPdf::11                   0                       # What write queue length does an incoming req see (Count)
system.loc_mem_ctrl.wrQLenPdf::12                   0                       # What write queue length does an incoming req see (Count)
system.loc_mem_ctrl.wrQLenPdf::13                   0                       # What write queue length does an incoming req see (Count)
system.loc_mem_ctrl.wrQLenPdf::14                   0                       # What write queue length does an incoming req see (Count)
system.loc_mem_ctrl.wrQLenPdf::15                   0                       # What write queue length does an incoming req see (Count)
system.loc_mem_ctrl.wrQLenPdf::16                   0                       # What write queue length does an incoming req see (Count)
system.loc_mem_ctrl.wrQLenPdf::17                   0                       # What write queue length does an incoming req see (Count)
system.loc_mem_ctrl.wrQLenPdf::18                   0                       # What write queue length does an incoming req see (Count)
system.loc_mem_ctrl.wrQLenPdf::19                   0                       # What write queue length does an incoming req see (Count)
system.loc_mem_ctrl.wrQLenPdf::20                   0                       # What write queue length does an incoming req see (Count)
system.loc_mem_ctrl.wrQLenPdf::21                   0                       # What write queue length does an incoming req see (Count)
system.loc_mem_ctrl.wrQLenPdf::22                   0                       # What write queue length does an incoming req see (Count)
system.loc_mem_ctrl.wrQLenPdf::23                   0                       # What write queue length does an incoming req see (Count)
system.loc_mem_ctrl.wrQLenPdf::24                   0                       # What write queue length does an incoming req see (Count)
system.loc_mem_ctrl.wrQLenPdf::25                   0                       # What write queue length does an incoming req see (Count)
system.loc_mem_ctrl.wrQLenPdf::26                   0                       # What write queue length does an incoming req see (Count)
system.loc_mem_ctrl.wrQLenPdf::27                   0                       # What write queue length does an incoming req see (Count)
system.loc_mem_ctrl.wrQLenPdf::28                   0                       # What write queue length does an incoming req see (Count)
system.loc_mem_ctrl.wrQLenPdf::29                   0                       # What write queue length does an incoming req see (Count)
system.loc_mem_ctrl.wrQLenPdf::30                   0                       # What write queue length does an incoming req see (Count)
system.loc_mem_ctrl.wrQLenPdf::31                   0                       # What write queue length does an incoming req see (Count)
system.loc_mem_ctrl.wrQLenPdf::32                   0                       # What write queue length does an incoming req see (Count)
system.loc_mem_ctrl.wrQLenPdf::33                   0                       # What write queue length does an incoming req see (Count)
system.loc_mem_ctrl.wrQLenPdf::34                   0                       # What write queue length does an incoming req see (Count)
system.loc_mem_ctrl.wrQLenPdf::35                   0                       # What write queue length does an incoming req see (Count)
system.loc_mem_ctrl.wrQLenPdf::36                   0                       # What write queue length does an incoming req see (Count)
system.loc_mem_ctrl.wrQLenPdf::37                   0                       # What write queue length does an incoming req see (Count)
system.loc_mem_ctrl.wrQLenPdf::38                   0                       # What write queue length does an incoming req see (Count)
system.loc_mem_ctrl.wrQLenPdf::39                   0                       # What write queue length does an incoming req see (Count)
system.loc_mem_ctrl.wrQLenPdf::40                   0                       # What write queue length does an incoming req see (Count)
system.loc_mem_ctrl.wrQLenPdf::41                   0                       # What write queue length does an incoming req see (Count)
system.loc_mem_ctrl.wrQLenPdf::42                   0                       # What write queue length does an incoming req see (Count)
system.loc_mem_ctrl.wrQLenPdf::43                   0                       # What write queue length does an incoming req see (Count)
system.loc_mem_ctrl.wrQLenPdf::44                   0                       # What write queue length does an incoming req see (Count)
system.loc_mem_ctrl.wrQLenPdf::45                   0                       # What write queue length does an incoming req see (Count)
system.loc_mem_ctrl.wrQLenPdf::46                   0                       # What write queue length does an incoming req see (Count)
system.loc_mem_ctrl.wrQLenPdf::47                   0                       # What write queue length does an incoming req see (Count)
system.loc_mem_ctrl.wrQLenPdf::48                   0                       # What write queue length does an incoming req see (Count)
system.loc_mem_ctrl.wrQLenPdf::49                   0                       # What write queue length does an incoming req see (Count)
system.loc_mem_ctrl.wrQLenPdf::50                   0                       # What write queue length does an incoming req see (Count)
system.loc_mem_ctrl.wrQLenPdf::51                   0                       # What write queue length does an incoming req see (Count)
system.loc_mem_ctrl.wrQLenPdf::52                   0                       # What write queue length does an incoming req see (Count)
system.loc_mem_ctrl.wrQLenPdf::53                   0                       # What write queue length does an incoming req see (Count)
system.loc_mem_ctrl.wrQLenPdf::54                   0                       # What write queue length does an incoming req see (Count)
system.loc_mem_ctrl.wrQLenPdf::55                   0                       # What write queue length does an incoming req see (Count)
system.loc_mem_ctrl.wrQLenPdf::56                   0                       # What write queue length does an incoming req see (Count)
system.loc_mem_ctrl.wrQLenPdf::57                   0                       # What write queue length does an incoming req see (Count)
system.loc_mem_ctrl.wrQLenPdf::58                   0                       # What write queue length does an incoming req see (Count)
system.loc_mem_ctrl.wrQLenPdf::59                   0                       # What write queue length does an incoming req see (Count)
system.loc_mem_ctrl.wrQLenPdf::60                   0                       # What write queue length does an incoming req see (Count)
system.loc_mem_ctrl.wrQLenPdf::61                   0                       # What write queue length does an incoming req see (Count)
system.loc_mem_ctrl.wrQLenPdf::62                   0                       # What write queue length does an incoming req see (Count)
system.loc_mem_ctrl.wrQLenPdf::63                   0                       # What write queue length does an incoming req see (Count)
system.loc_mem_ctrl.wrQLenPdf::64                   0                       # What write queue length does an incoming req see (Count)
system.loc_mem_ctrl.wrQLenPdf::65                   0                       # What write queue length does an incoming req see (Count)
system.loc_mem_ctrl.wrQLenPdf::66                   0                       # What write queue length does an incoming req see (Count)
system.loc_mem_ctrl.wrQLenPdf::67                   0                       # What write queue length does an incoming req see (Count)
system.loc_mem_ctrl.wrQLenPdf::68                   0                       # What write queue length does an incoming req see (Count)
system.loc_mem_ctrl.wrQLenPdf::69                   0                       # What write queue length does an incoming req see (Count)
system.loc_mem_ctrl.wrQLenPdf::70                   0                       # What write queue length does an incoming req see (Count)
system.loc_mem_ctrl.wrQLenPdf::71                   0                       # What write queue length does an incoming req see (Count)
system.loc_mem_ctrl.wrQLenPdf::72                   0                       # What write queue length does an incoming req see (Count)
system.loc_mem_ctrl.wrQLenPdf::73                   0                       # What write queue length does an incoming req see (Count)
system.loc_mem_ctrl.wrQLenPdf::74                   0                       # What write queue length does an incoming req see (Count)
system.loc_mem_ctrl.wrQLenPdf::75                   0                       # What write queue length does an incoming req see (Count)
system.loc_mem_ctrl.wrQLenPdf::76                   0                       # What write queue length does an incoming req see (Count)
[...]
system.loc_mem_ctrl.dram_2.bwTotal::total  13788736885                       # Total bandwidth to/from this memory ((Byte/Second))
system.loc_mem_ctrl.dram_2.readBursts         4308998                       # Number of DRAM read bursts (Count)
system.loc_mem_ctrl.dram_2.writeBursts              0                       # Number of DRAM write bursts (Count)
system.loc_mem_ctrl.dram_2.perBankRdBursts::0       268268                       # Per bank write bursts (Count)
system.loc_mem_ctrl.dram_2.perBankRdBursts::1       270274                       # Per bank write bursts (Count)
system.loc_mem_ctrl.dram_2.perBankRdBursts::2       269368                       # Per bank write bursts (Count)
system.loc_mem_ctrl.dram_2.perBankRdBursts::3       268714                       # Per bank write bursts (Count)
system.loc_mem_ctrl.dram_2.perBankRdBursts::4       269802                       # Per bank write bursts (Count)
system.loc_mem_ctrl.dram_2.perBankRdBursts::5       269320                       # Per bank write bursts (Count)
system.loc_mem_ctrl.dram_2.perBankRdBursts::6       269638                       # Per bank write bursts (Count)
system.loc_mem_ctrl.dram_2.perBankRdBursts::7       269160                       # Per bank write bursts (Count)
system.loc_mem_ctrl.dram_2.perBankRdBursts::8       269366                       # Per bank write bursts (Count)
system.loc_mem_ctrl.dram_2.perBankRdBursts::9       268858                       # Per bank write bursts (Count)
system.loc_mem_ctrl.dram_2.perBankRdBursts::10       268974                       # Per bank write bursts (Count)
system.loc_mem_ctrl.dram_2.perBankRdBursts::11       269276                       # Per bank write bursts (Count)
system.loc_mem_ctrl.dram_2.perBankRdBursts::12       269256                       # Per bank write bursts (Count)
system.loc_mem_ctrl.dram_2.perBankRdBursts::13       268720                       # Per bank write bursts (Count)
system.loc_mem_ctrl.dram_2.perBankRdBursts::14       269970                       # Per bank write bursts (Count)
system.loc_mem_ctrl.dram_2.perBankRdBursts::15       270034                       # Per bank write bursts (Count)
system.loc_mem_ctrl.dram_2.perBankWrBursts::0            0                       # Per bank write bursts (Count)
system.loc_mem_ctrl.dram_2.perBankWrBursts::1            0                       # Per bank write bursts (Count)
system.loc_mem_ctrl.dram_2.perBankWrBursts::2            0                       # Per bank write bursts (Count)
system.loc_mem_ctrl.dram_2.perBankWrBursts::3            0                       # Per bank write bursts (Count)
system.loc_mem_ctrl.dram_2.perBankWrBursts::4            0                       # Per bank write bursts (Count)
system.loc_mem_ctrl.dram_2.perBankWrBursts::5            0                       # Per bank write bursts (Count)
system.loc_mem_ctrl.dram_2.perBankWrBursts::6            0                       # Per bank write bursts (Count)
system.loc_mem_ctrl.dram_2.perBankWrBursts::7            0                       # Per bank write bursts (Count)
system.loc_mem_ctrl.dram_2.perBankWrBursts::8            0                       # Per bank write bursts (Count)
system.loc_mem_ctrl.dram_2.perBankWrBursts::9            0                       # Per bank write bursts (Count)
system.loc_mem_ctrl.dram_2.perBankWrBursts::10            0                       # Per bank write bursts (Count)
system.loc_mem_ctrl.dram_2.perBankWrBursts::11            0                       # Per bank write bursts (Count)
system.loc_mem_ctrl.dram_2.perBankWrBursts::12            0                       # Per bank write bursts (Count)
system.loc_mem_ctrl.dram_2.perBankWrBursts::13            0                       # Per bank write bursts (Count)
system.loc_mem_ctrl.dram_2.perBankWrBursts::14            0                       # Per bank write bursts (Count)
system.loc_mem_ctrl.dram_2.perBankWrBursts::15            0                       # Per bank write bursts (Count)
system.loc_mem_ctrl.dram_2.totQLat       463951955000                       # Total ticks spent queuing (Tick)
system.loc_mem_ctrl.dram_2.totBusLat       8617996000                       # Total ticks spent in databus transfers (Tick)
system.loc_mem_ctrl.dram_2.totMemAccLat  550131915000                       # Total ticks spent from burst creation until serviced by the DRAM (Tick)
system.loc_mem_ctrl.dram_2.avgQLat          107670.50                       # Average queueing delay per DRAM burst ((Tick/Count))
system.loc_mem_ctrl.dram_2.avgBusLat          2000.00                       # Average bus latency per DRAM burst ((Tick/Count))
system.loc_mem_ctrl.dram_2.avgMemAccLat     127670.50                       # Average memory access latency per DRAM burst ((Tick/Count))
system.loc_mem_ctrl.dram_2.readRowHits        2152403                       # Number of row buffer hits during reads (Count)
system.loc_mem_ctrl.dram_2.writeRowHits             0                       # Number of row buffer hits during writes (Count)
system.loc_mem_ctrl.dram_2.readRowHitRate        49.95                       # Row buffer hit rate for reads (Ratio)
system.loc_mem_ctrl.dram_2.writeRowHitRate          nan                       # Row buffer hit rate for writes (Ratio)
system.loc_mem_ctrl.dram_2.bytesPerActivate::samples      2156595                       # Bytes accessed per row activation (Byte)
system.loc_mem_ctrl.dram_2.bytesPerActivate::mean    63.937798                       # Bytes accessed per row activation (Byte)
system.loc_mem_ctrl.dram_2.bytesPerActivate::gmean    63.913273                       # Bytes accessed per row activation (Byte)
system.loc_mem_ctrl.dram_2.bytesPerActivate::stdev     1.436492                       # Bytes accessed per row activation (Byte)
system.loc_mem_ctrl.dram_2.bytesPerActivate::32-47         4246      0.20%      0.20% # Bytes accessed per row activation (Byte)
system.loc_mem_ctrl.dram_2.bytesPerActivate::64-79      2152322     99.80%    100.00% # Bytes accessed per row activation (Byte)
system.loc_mem_ctrl.dram_2.bytesPerActivate::128-143           27      0.00%    100.00% # Bytes accessed per row activation (Byte)
system.loc_mem_ctrl.dram_2.bytesPerActivate::total      2156595                       # Bytes accessed per row activation (Byte)
system.loc_mem_ctrl.dram_2.bytesRead        137887936                       # Total bytes read (Byte)
system.loc_mem_ctrl.dram_2.bytesWritten             0                       # Total bytes written (Byte)
system.loc_mem_ctrl.dram_2.avgRdBW       13788.788084                       # Average DRAM read bandwidth in MiBytes/s ((Byte/Second))
system.loc_mem_ctrl.dram_2.avgWrBW                  0                       # Average DRAM write bandwidth in MiBytes/s ((Byte/Second))
system.loc_mem_ctrl.dram_2.peakBW            16000.00                       # Theoretical peak bandwidth in MiByte/s ((Byte/Second))
system.loc_mem_ctrl.dram_2.busUtil              86.18                       # Data bus utilization in percentage (Ratio)
system.loc_mem_ctrl.dram_2.busUtilRead          86.18                       # Data bus utilization in percentage for reads (Ratio)
system.loc_mem_ctrl.dram_2.busUtilWrite          0.00                       # Data bus utilization in percentage for writes (Ratio)
system.loc_mem_ctrl.dram_2.pageHitRate          49.95                       # Row buffer hit rate, read and write combined (Ratio)
system.loc_mem_ctrl.dram_2.power_state.pwrStateResidencyTicks::UNDEFINED  10000004000                       # Cumulative time (in ticks) in various power states (Tick)
system.loc_mem_ctrl.dram_2.rank0.actEnergy            0                       # Energy for activate commands per rank (pJ) (Joule)
system.loc_mem_ctrl.dram_2.rank0.preEnergy            0                       # Energy for precharge commands per rank (pJ) (Joule)
system.loc_mem_ctrl.dram_2.rank0.readEnergy            0                       # Energy for read commands per rank (pJ) (Joule)
system.loc_mem_ctrl.dram_2.rank0.writeEnergy            0                       # Energy for write commands per rank (pJ) (Joule)
system.loc_mem_ctrl.dram_2.rank0.refreshEnergy            0                       # Energy for refresh commands per rank (pJ) (Joule)
system.loc_mem_ctrl.dram_2.rank0.actBackEnergy            0                       # Energy for active background per rank (pJ) (Joule)
system.loc_mem_ctrl.dram_2.rank0.preBackEnergy            0                       # Energy for precharge background per rank (pJ) (Joule)
system.loc_mem_ctrl.dram_2.rank0.actPowerDownEnergy            0                       # Energy for active power-down per rank (pJ) (Joule)
system.loc_mem_ctrl.dram_2.rank0.prePowerDownEnergy            0                       # Energy for precharge power-down per rank (pJ) (Joule)
system.loc_mem_ctrl.dram_2.rank0.selfRefreshEnergy            0                       # Energy for self refresh per rank (pJ) (Joule)
system.loc_mem_ctrl.dram_2.rank0.totalEnergy            0                       # Total energy per rank (pJ) (Joule)
system.loc_mem_ctrl.dram_2.rank0.averagePower            0                       # Core power per rank (mW) (Watt)
system.loc_mem_ctrl.dram_2.rank0.totalIdleTime            0                       # Total Idle time Per DRAM Rank (Tick)
system.loc_mem_ctrl.dram_2.rank0.pwrStateTime::IDLE        11000                       # Time in different power states (Tick)
system.loc_mem_ctrl.dram_2.rank0.pwrStateTime::REF    566060000                       # Time in different power states (Tick)
system.loc_mem_ctrl.dram_2.rank0.pwrStateTime::SREF            0                       # Time in different power states (Tick)
system.loc_mem_ctrl.dram_2.rank0.pwrStateTime::PRE_PDN            0                       # Time in different power states (Tick)
system.loc_mem_ctrl.dram_2.rank0.pwrStateTime::ACT   9433933000                       # Time in different power states (Tick)
system.loc_mem_ctrl.dram_2.rank0.pwrStateTime::ACT_PDN            0                       # Time in different power states (Tick)
system.loc_mem_ctrl.power_state.pwrStateResidencyTicks::UNDEFINED  10000004000                       # Cumulative time (in ticks) in various power states (Tick)
system.mem_ctrl.bytesRead::generator        275957312                       # Number of bytes read from this memory (Byte)
system.mem_ctrl.bytesRead::total            275957312                       # Number of bytes read from this memory (Byte)
system.mem_ctrl.numReads::generator           4311833                       # Number of read requests responded to by this memory (Count)
system.mem_ctrl.numReads::total               4311833                       # Number of read requests responded to by this memory (Count)
system.mem_ctrl.bwRead::generator         27595720162                       # Total read bandwidth from this memory ((Byte/Second))
system.mem_ctrl.bwRead::total             27595720162                       # Total read bandwidth from this memory ((Byte/Second))
system.mem_ctrl.bwTotal::generator        27595720162                       # Total bandwidth to/from this memory ((Byte/Second))
system.mem_ctrl.bwTotal::total            27595720162                       # Total bandwidth to/from this memory ((Byte/Second))
system.mem_ctrl.readReqs                      4312089                       # Number of read requests accepted (Count)
system.mem_ctrl.writeReqs                           0                       # Number of write requests accepted (Count)
system.mem_ctrl.servicedByWrQ                       0                       # Number of controller read bursts serviced by the write queue (Count)
system.mem_ctrl.mergedWrBursts                      0                       # Number of controller write bursts merged with an existing one (Count)
system.mem_ctrl.numRdRetry                    4310294                       # Number of times read queue was full causing retry (Count)
system.mem_ctrl.numWrRetry                          0                       # Number of times write queue was full causing retry (Count)
system.mem_ctrl.readPktSize::0                      0                       # Read request sizes (log2) (Count)
system.mem_ctrl.readPktSize::1                      0                       # Read request sizes (log2) (Count)
system.mem_ctrl.readPktSize::2                      0                       # Read request sizes (log2) (Count)
system.mem_ctrl.readPktSize::3                      0                       # Read request sizes (log2) (Count)
system.mem_ctrl.readPktSize::4                      0                       # Read request sizes (log2) (Count)
system.mem_ctrl.readPktSize::5                      0                       # Read request sizes (log2) (Count)
system.mem_ctrl.readPktSize::6                4312089                       # Read request sizes (log2) (Count)
system.mem_ctrl.writePktSize::0                     0                       # Write request sizes (log2) (Count)
system.mem_ctrl.writePktSize::1                     0                       # Write request sizes (log2) (Count)
system.mem_ctrl.writePktSize::2                     0                       # Write request sizes (log2) (Count)
system.mem_ctrl.writePktSize::3                     0                       # Write request sizes (log2) (Count)
system.mem_ctrl.writePktSize::4                     0                       # Write request sizes (log2) (Count)
system.mem_ctrl.writePktSize::5                     0                       # Write request sizes (log2) (Count)
system.mem_ctrl.writePktSize::6                     0                       # Write request sizes (log2) (Count)
system.mem_ctrl.bytesReadWrQ                        0                       # Total number of bytes read from write queue (Byte)
system.mem_ctrl.bytesReadSys                275973696                       # Total read bytes from the system interface side (Byte)
system.mem_ctrl.bytesWrittenSys                     0                       # Total written bytes from the system interface side (Byte)
system.mem_ctrl.avgRdBWSys               27597358561.05657578                       # Average system read bandwidth in Byte/s ((Byte/Second))
system.mem_ctrl.avgWrBWSys                 0.00000000                       # Average system write bandwidth in Byte/s ((Byte/Second))
system.mem_ctrl.totGap                   18446604185488183296                       # Total gap between requests (Tick)
system.mem_ctrl.avgGap                   4277881134987.75                       # Average gap between requests ((Tick/Count))
system.mem_ctrl.avgORBLen                    255.9952                       # Average ORB length ((Count/Tick))
system.mem_ctrl.avgLocRdQLenStrt               191.06                       # Average local read queue length ((Count/Tick))
system.mem_ctrl.avgLocWrQLenStrt                 0.00                       # Average local write queue length ((Count/Tick))
system.mem_ctrl.avgFarRdQLenStrt                 0.00                       # Average far read queue length ((Count/Tick))
system.mem_ctrl.avgFarWrQLenStrt                 0.00                       # Average far write queue length ((Count/Tick))
system.mem_ctrl.avgLocRdQLenEnq                192.06                       # Average local read queue length when enqueuing ((Count/Tick))
system.mem_ctrl.avgLocWrQLenEnq                  0.00                       # Average local write queue length when enqueuing ((Count/Tick))
system.mem_ctrl.avgFarRdQLenEnq                  0.00                       # Average far read queue length when enqueuing ((Count/Tick))
system.mem_ctrl.avgFarWrQLenEnq                  0.00                       # Average far write queue length when enqueuing ((Count/Tick))
system.mem_ctrl.numWrBacks                          0                       # Total number of write backs from DRAM cache to main memory (Unspecified)
system.mem_ctrl.totNumConf                       1087                       # Total number of packets conflicted on DRAM cache (Unspecified)
system.mem_ctrl.totNumORBFull                 4310294                       # Total number of packets ORB full (Unspecified)
system.mem_ctrl.totNumCRBFull                       0                       # Total number of packets conflicted yet couldn't enter confBuffer (Unspecified)
system.mem_ctrl.maxNumConf                          2                       # Maximum number of packets conflicted on DRAM cache (Unspecified)
system.mem_ctrl.sentLocRdPort                 4311888                       # stat (Unspecified)
system.mem_ctrl.sentLocWrPort                       0                       # stat (Unspecified)
system.mem_ctrl.failedLocRdPort               6395348                       # stat (Unspecified)
system.mem_ctrl.failedLocWrPort                     0                       # stat (Unspecified)
system.mem_ctrl.recvdRdPort                         0                       # stat (Unspecified)
system.mem_ctrl.sentFarRdPort                       0                       # stat (Unspecified)
system.mem_ctrl.sentFarWrPort                       0                       # stat (Unspecified)
system.mem_ctrl.failedFarRdPort                     0                       # stat (Unspecified)
system.mem_ctrl.failedFarWrPort                     0                       # stat (Unspecified)
system.mem_ctrl.totPktsServiceTime         2559573312                       # stat (Unspecified)
system.mem_ctrl.totPktsORBTime             2559249226                       # stat (Unspecified)
system.mem_ctrl.totTimeFarRdtoSend                  0                       # stat (Unspecified)
system.mem_ctrl.totTimeFarRdtoRecv                  0                       # stat (Unspecified)
system.mem_ctrl.totTimeFarWrtoSend                  0                       # stat (Unspecified)
system.mem_ctrl.totTimeInLocRead           2559249226                       # stat (Unspecified)
system.mem_ctrl.totTimeInLocWrite                   0                       # stat (Unspecified)
system.mem_ctrl.totTimeInFarRead                    0                       # stat (Unspecified)
system.mem_ctrl.numTotHits                    4312089                       # stat (Unspecified)
system.mem_ctrl.numTotMisses                        0                       # stat (Unspecified)
system.mem_ctrl.numColdMisses                       0                       # stat (Unspecified)
system.mem_ctrl.numHotMisses                        0                       # stat (Unspecified)
system.mem_ctrl.numRdMissClean                      0                       # stat (Unspecified)
system.mem_ctrl.numRdMissDirty                      0                       # stat (Unspecified)
system.mem_ctrl.numRdHit                      4312089                       # stat (Unspecified)
system.mem_ctrl.numWrMissClean                      0                       # stat (Unspecified)
system.mem_ctrl.numWrMissDirty                      0                       # stat (Unspecified)
system.mem_ctrl.numWrHit                            0                       # stat (Unspecified)
system.mem_ctrl.numRdHitDirty                       0                       # stat (Unspecified)
system.mem_ctrl.numRdHitClean                 4312089                       # stat (Unspecified)
system.mem_ctrl.numWrHitDirty                       0                       # stat (Unspecified)
system.mem_ctrl.numWrHitClean                       0                       # stat (Unspecified)
system.mem_ctrl.power_state.pwrStateResidencyTicks::UNDEFINED  10000004000                       # Cumulative time (in ticks) in various power states (Tick)
system.workload.inst.arm                            0                       # number of arm instructions executed (Count)
system.workload.inst.quiesce                        0                       # number of quiesce instructions executed (Count)

---------- End Simulation Statistics   ----------
