
---------- Begin Simulation Statistics ----------
simSeconds                                          2                       # Number of seconds simulated (Second)
simTicks                                 2000000000000                       # Number of ticks simulated (Tick)
finalTick                                26821297602750                       # Number of ticks from beginning of simulation (restored from checkpoints and never reset) (Tick)
simFreq                                  1000000000000                       # The number of ticks per simulated second ((Tick/Second))
hostSeconds                                   7607.54                       # Real time elapsed on the host (Second)
hostTickRate                                262897068                       # The number of ticks simulated per host second (ticks/s) ((Tick/Second))
hostMemory                                   10395124                       # Number of bytes of host memory used (Byte)
simInsts                                  36699416355                       # Number of instructions simulated (Count)
simOps                                    37773839783                       # Number of ops (including micro ops) simulated (Count)
hostInstRate                                  4824084                       # Simulator instruction rate (inst/s) ((Count/Second))
hostOpRate                                    4965316                       # Simulator op (including micro ops) rate (op/s) ((Count/Second))
system.atomicCpu0.numCycles                         0                       # Number of cpu cycles simulated (Cycle)
system.atomicCpu0.numWorkItemsStarted               0                       # Number of work items this cpu started (Count)
system.atomicCpu0.numWorkItemsCompleted             0                       # Number of work items this cpu completed (Count)
system.atomicCpu0.exec_context.thread_0.numInsts            0                       # Number of instructions committed (Count)
system.atomicCpu0.exec_context.thread_0.numOps            0                       # Number of ops (including micro ops) committed (Count)
system.atomicCpu0.exec_context.thread_0.numIntAluAccesses            0                       # Number of integer alu accesses (Count)
system.atomicCpu0.exec_context.thread_0.numFpAluAccesses            0                       # Number of float alu accesses (Count)
system.atomicCpu0.exec_context.thread_0.numVecAluAccesses            0                       # Number of vector alu accesses (Count)
system.atomicCpu0.exec_context.thread_0.numCallsReturns            0                       # Number of times a function call or return occured (Count)
system.atomicCpu0.exec_context.thread_0.numCondCtrlInsts            0                       # Number of instructions that are conditional controls (Count)
system.atomicCpu0.exec_context.thread_0.numIntInsts            0                       # Number of integer instructions (Count)
system.atomicCpu0.exec_context.thread_0.numFpInsts            0                       # Number of float instructions (Count)
system.atomicCpu0.exec_context.thread_0.numVecInsts            0                       # Number of vector instructions (Count)
system.atomicCpu0.exec_context.thread_0.numIntRegReads            0                       # Number of times the integer registers were read (Count)
system.atomicCpu0.exec_context.thread_0.numIntRegWrites            0                       # Number of times the integer registers were written (Count)
system.atomicCpu0.exec_context.thread_0.numFpRegReads            0                       # Number of times the floating registers were read (Count)
system.atomicCpu0.exec_context.thread_0.numFpRegWrites            0                       # Number of times the floating registers were written (Count)
system.atomicCpu0.exec_context.thread_0.numVecRegReads            0                       # Number of times the vector registers were read (Count)
system.atomicCpu0.exec_context.thread_0.numVecRegWrites            0                       # Number of times the vector registers were written (Count)
system.atomicCpu0.exec_context.thread_0.numVecPredRegReads            0                       # Number of times the predicate registers were read (Count)
system.atomicCpu0.exec_context.thread_0.numVecPredRegWrites            0                       # Number of times the predicate registers were written (Count)
system.atomicCpu0.exec_context.thread_0.numMiscRegReads            0                       # Number of times the Misc registers were read (Count)
system.atomicCpu0.exec_context.thread_0.numMiscRegWrites            0                       # Number of times the Misc registers were written (Count)
system.atomicCpu0.exec_context.thread_0.numMemRefs            0                       # Number of memory refs (Count)
system.atomicCpu0.exec_context.thread_0.numLoadInsts            0                       # Number of load instructions (Count)
system.atomicCpu0.exec_context.thread_0.numStoreInsts            0                       # Number of store instructions (Count)
system.atomicCpu0.exec_context.thread_0.numIdleCycles            0                       # Number of idle cycles (Cycle)
system.atomicCpu0.exec_context.thread_0.numBusyCycles            0                       # Number of busy cycles (Cycle)
system.atomicCpu0.exec_context.thread_0.notIdleFraction            0                       # Percentage of non-idle cycles (Ratio)
system.atomicCpu0.exec_context.thread_0.idleFraction            1                       # Percentage of idle cycles (Ratio)
system.atomicCpu0.exec_context.thread_0.statExecutedInstType::No_OpClass            0                       # Class of executed instruction. (Count)
system.atomicCpu0.exec_context.thread_0.statExecutedInstType::IntAlu            0                       # Class of executed instruction. (Count)
system.atomicCpu0.exec_context.thread_0.statExecutedInstType::IntMult            0                       # Class of executed instruction. (Count)
system.atomicCpu0.exec_context.thread_0.statExecutedInstType::IntDiv            0                       # Class of executed instruction. (Count)
system.atomicCpu0.exec_context.thread_0.statExecutedInstType::FloatAdd            0                       # Class of executed instruction. (Count)
system.atomicCpu0.exec_context.thread_0.statExecutedInstType::FloatCmp            0                       # Class of executed instruction. (Count)
system.atomicCpu0.exec_context.thread_0.statExecutedInstType::FloatCvt            0                       # Class of executed instruction. (Count)
system.atomicCpu0.exec_context.thread_0.statExecutedInstType::FloatMult            0                       # Class of executed instruction. (Count)
system.atomicCpu0.exec_context.thread_0.statExecutedInstType::FloatMultAcc            0                       # Class of executed instruction. (Count)
system.atomicCpu0.exec_context.thread_0.statExecutedInstType::FloatDiv            0                       # Class of executed instruction. (Count)
system.atomicCpu0.exec_context.thread_0.statExecutedInstType::FloatMisc            0                       # Class of executed instruction. (Count)
system.atomicCpu0.exec_context.thread_0.statExecutedInstType::FloatSqrt            0                       # Class of executed instruction. (Count)
system.atomicCpu0.exec_context.thread_0.statExecutedInstType::SimdAdd            0                       # Class of executed instruction. (Count)
system.atomicCpu0.exec_context.thread_0.statExecutedInstType::SimdAddAcc            0                       # Class of executed instruction. (Count)
system.atomicCpu0.exec_context.thread_0.statExecutedInstType::SimdAlu            0                       # Class of executed instruction. (Count)
system.atomicCpu0.exec_context.thread_0.statExecutedInstType::SimdCmp            0                       # Class of executed instruction. (Count)
system.atomicCpu0.exec_context.thread_0.statExecutedInstType::SimdCvt            0                       # Class of executed instruction. (Count)
system.atomicCpu0.exec_context.thread_0.statExecutedInstType::SimdMisc            0                       # Class of executed instruction. (Count)
system.atomicCpu0.exec_context.thread_0.statExecutedInstType::SimdMult            0                       # Class of executed instruction. (Count)
system.atomicCpu0.exec_context.thread_0.statExecutedInstType::SimdMultAcc            0                       # Class of executed instruction. (Count)
system.atomicCpu0.exec_context.thread_0.statExecutedInstType::SimdShift            0                       # Class of executed instruction. (Count)
system.atomicCpu0.exec_context.thread_0.statExecutedInstType::SimdShiftAcc            0                       # Class of executed instruction. (Count)
system.atomicCpu0.exec_context.thread_0.statExecutedInstType::SimdDiv            0                       # Class of executed instruction. (Count)
system.atomicCpu0.exec_context.thread_0.statExecutedInstType::SimdSqrt            0                       # Class of executed instruction. (Count)
system.atomicCpu0.exec_context.thread_0.statExecutedInstType::SimdFloatAdd            0                       # Class of executed instruction. (Count)
system.atomicCpu0.exec_context.thread_0.statExecutedInstType::SimdFloatAlu            0                       # Class of executed instruction. (Count)
system.atomicCpu0.exec_context.thread_0.statExecutedInstType::SimdFloatCmp            0                       # Class of executed instruction. (Count)
system.atomicCpu0.exec_context.thread_0.statExecutedInstType::SimdFloatCvt            0                       # Class of executed instruction. (Count)
system.atomicCpu0.exec_context.thread_0.statExecutedInstType::SimdFloatDiv            0                       # Class of executed instruction. (Count)
system.atomicCpu0.exec_context.thread_0.statExecutedInstType::SimdFloatMisc            0                       # Class of executed instruction. (Count)
system.atomicCpu0.exec_context.thread_0.statExecutedInstType::SimdFloatMult            0                       # Class of executed instruction. (Count)
system.atomicCpu0.exec_context.thread_0.statExecutedInstType::SimdFloatMultAcc            0                       # Class of executed instruction. (Count)
system.atomicCpu0.exec_context.thread_0.statExecutedInstType::SimdFloatSqrt            0                       # Class of executed instruction. (Count)
system.atomicCpu0.exec_context.thread_0.statExecutedInstType::SimdReduceAdd            0                       # Class of executed instruction. (Count)
system.atomicCpu0.exec_context.thread_0.statExecutedInstType::SimdReduceAlu            0                       # Class of executed instruction. (Count)
system.atomicCpu0.exec_context.thread_0.statExecutedInstType::SimdReduceCmp            0                       # Class of executed instruction. (Count)
system.atomicCpu0.exec_context.thread_0.statExecutedInstType::SimdFloatReduceAdd            0                       # Class of executed instruction. (Count)
system.atomicCpu0.exec_context.thread_0.statExecutedInstType::SimdFloatReduceCmp            0                       # Class of executed instruction. (Count)
system.atomicCpu0.exec_context.thread_0.statExecutedInstType::SimdAes            0                       # Class of executed instruction. (Count)
system.atomicCpu0.exec_context.thread_0.statExecutedInstType::SimdAesMix            0                       # Class of executed instruction. (Count)
system.atomicCpu0.exec_context.thread_0.statExecutedInstType::SimdSha1Hash            0                       # Class of executed instruction. (Count)
system.atomicCpu0.exec_context.thread_0.statExecutedInstType::SimdSha1Hash2            0                       # Class of executed instruction. (Count)
system.atomicCpu0.exec_context.thread_0.statExecutedInstType::SimdSha256Hash            0                       # Class of executed instruction. (Count)
system.atomicCpu0.exec_context.thread_0.statExecutedInstType::SimdSha256Hash2            0                       # Class of executed instruction. (Count)
system.atomicCpu0.exec_context.thread_0.statExecutedInstType::SimdShaSigma2            0                       # Class of executed instruction. (Count)
system.atomicCpu0.exec_context.thread_0.statExecutedInstType::SimdShaSigma3            0                       # Class of executed instruction. (Count)
system.atomicCpu0.exec_context.thread_0.statExecutedInstType::SimdPredAlu            0                       # Class of executed instruction. (Count)
system.atomicCpu0.exec_context.thread_0.statExecutedInstType::MemRead            0                       # Class of executed instruction. (Count)
system.atomicCpu0.exec_context.thread_0.statExecutedInstType::MemWrite            0                       # Class of executed instruction. (Count)
system.atomicCpu0.exec_context.thread_0.statExecutedInstType::FloatMemRead            0                       # Class of executed instruction. (Count)
system.atomicCpu0.exec_context.thread_0.statExecutedInstType::FloatMemWrite            0                       # Class of executed instruction. (Count)
system.atomicCpu0.exec_context.thread_0.statExecutedInstType::IprAccess            0                       # Class of executed instruction. (Count)
system.atomicCpu0.exec_context.thread_0.statExecutedInstType::InstPrefetch            0                       # Class of executed instruction. (Count)
system.atomicCpu0.exec_context.thread_0.statExecutedInstType::total            0                       # Class of executed instruction. (Count)
system.atomicCpu0.mmu.dtb.rdAccesses                0                       # TLB accesses on read requests (Count)
system.atomicCpu0.mmu.dtb.wrAccesses                0                       # TLB accesses on write requests (Count)
system.atomicCpu0.mmu.dtb.rdMisses                  0                       # TLB misses on read requests (Count)
system.atomicCpu0.mmu.dtb.wrMisses                  0                       # TLB misses on write requests (Count)
system.atomicCpu0.mmu.dtb.walker.power_state.pwrStateResidencyTicks::UNDEFINED 26821297602750                       # Cumulative time (in ticks) in various power states (Tick)
system.atomicCpu0.mmu.itb.rdAccesses                0                       # TLB accesses on read requests (Count)
system.atomicCpu0.mmu.itb.wrAccesses                0                       # TLB accesses on write requests (Count)
system.atomicCpu0.mmu.itb.rdMisses                  0                       # TLB misses on read requests (Count)
system.atomicCpu0.mmu.itb.wrMisses                  0                       # TLB misses on write requests (Count)
system.atomicCpu0.mmu.itb.walker.power_state.pwrStateResidencyTicks::UNDEFINED 26821297602750                       # Cumulative time (in ticks) in various power states (Tick)
system.atomicCpu0.power_state.pwrStateResidencyTicks::OFF 26821297602750                       # Cumulative time (in ticks) in various power states (Tick)
system.atomicCpu0.thread_0.numInsts                 0                       # Number of Instructions committed (Count)
system.atomicCpu0.thread_0.numOps                   0                       # Number of Ops committed (Count)
system.atomicCpu0.thread_0.numMemRefs               0                       # Number of Memory References (Count)
system.atomicCpu1.numCycles                         0                       # Number of cpu cycles simulated (Cycle)
system.atomicCpu1.numWorkItemsStarted               0                       # Number of work items this cpu started (Count)
system.atomicCpu1.numWorkItemsCompleted             0                       # Number of work items this cpu completed (Count)
system.atomicCpu1.exec_context.thread_0.numInsts            0                       # Number of instructions committed (Count)
system.atomicCpu1.exec_context.thread_0.numOps            0                       # Number of ops (including micro ops) committed (Count)
system.atomicCpu1.exec_context.thread_0.numIntAluAccesses            0                       # Number of integer alu accesses (Count)
system.atomicCpu1.exec_context.thread_0.numFpAluAccesses            0                       # Number of float alu accesses (Count)
system.atomicCpu1.exec_context.thread_0.numVecAluAccesses            0                       # Number of vector alu accesses (Count)
system.atomicCpu1.exec_context.thread_0.numCallsReturns            0                       # Number of times a function call or return occured (Count)
system.atomicCpu1.exec_context.thread_0.numCondCtrlInsts            0                       # Number of instructions that are conditional controls (Count)
system.atomicCpu1.exec_context.thread_0.numIntInsts            0                       # Number of integer instructions (Count)
system.atomicCpu1.exec_context.thread_0.numFpInsts            0                       # Number of float instructions (Count)
system.atomicCpu1.exec_context.thread_0.numVecInsts            0                       # Number of vector instructions (Count)
system.atomicCpu1.exec_context.thread_0.numIntRegReads            0                       # Number of times the integer registers were read (Count)
system.atomicCpu1.exec_context.thread_0.numIntRegWrites            0                       # Number of times the integer registers were written (Count)
system.atomicCpu1.exec_context.thread_0.numFpRegReads            0                       # Number of times the floating registers were read (Count)
system.atomicCpu1.exec_context.thread_0.numFpRegWrites            0                       # Number of times the floating registers were written (Count)
system.atomicCpu1.exec_context.thread_0.numVecRegReads            0                       # Number of times the vector registers were read (Count)
system.atomicCpu1.exec_context.thread_0.numVecRegWrites            0                       # Number of times the vector registers were written (Count)
system.atomicCpu1.exec_context.thread_0.numVecPredRegReads            0                       # Number of times the predicate registers were read (Count)
system.atomicCpu1.exec_context.thread_0.numVecPredRegWrites            0                       # Number of times the predicate registers were written (Count)
system.atomicCpu1.exec_context.thread_0.numMiscRegReads            0                       # Number of times the Misc registers were read (Count)
system.atomicCpu1.exec_context.thread_0.numMiscRegWrites            0                       # Number of times the Misc registers were written (Count)
system.atomicCpu1.exec_context.thread_0.numMemRefs            0                       # Number of memory refs (Count)
system.atomicCpu1.exec_context.thread_0.numLoadInsts            0                       # Number of load instructions (Count)
system.atomicCpu1.exec_context.thread_0.numStoreInsts            0                       # Number of store instructions (Count)
system.atomicCpu1.exec_context.thread_0.numIdleCycles            0                       # Number of idle cycles (Cycle)
system.atomicCpu1.exec_context.thread_0.numBusyCycles            0                       # Number of busy cycles (Cycle)
system.atomicCpu1.exec_context.thread_0.notIdleFraction            0                       # Percentage of non-idle cycles (Ratio)
system.atomicCpu1.exec_context.thread_0.idleFraction            1                       # Percentage of idle cycles (Ratio)
system.atomicCpu1.exec_context.thread_0.statExecutedInstType::No_OpClass            0                       # Class of executed instruction. (Count)
system.atomicCpu1.exec_context.thread_0.statExecutedInstType::IntAlu            0                       # Class of executed instruction. (Count)
system.atomicCpu1.exec_context.thread_0.statExecutedInstType::IntMult            0                       # Class of executed instruction. (Count)
system.atomicCpu1.exec_context.thread_0.statExecutedInstType::IntDiv            0                       # Class of executed instruction. (Count)
system.atomicCpu1.exec_context.thread_0.statExecutedInstType::FloatAdd            0                       # Class of executed instruction. (Count)
system.atomicCpu1.exec_context.thread_0.statExecutedInstType::FloatCmp            0                       # Class of executed instruction. (Count)
system.atomicCpu1.exec_context.thread_0.statExecutedInstType::FloatCvt            0                       # Class of executed instruction. (Count)
system.atomicCpu1.exec_context.thread_0.statExecutedInstType::FloatMult            0                       # Class of executed instruction. (Count)
system.atomicCpu1.exec_context.thread_0.statExecutedInstType::FloatMultAcc            0                       # Class of executed instruction. (Count)
system.atomicCpu1.exec_context.thread_0.statExecutedInstType::FloatDiv            0                       # Class of executed instruction. (Count)
system.atomicCpu1.exec_context.thread_0.statExecutedInstType::FloatMisc            0                       # Class of executed instruction. (Count)
system.atomicCpu1.exec_context.thread_0.statExecutedInstType::FloatSqrt            0                       # Class of executed instruction. (Count)
system.atomicCpu1.exec_context.thread_0.statExecutedInstType::SimdAdd            0                       # Class of executed instruction. (Count)
system.atomicCpu1.exec_context.thread_0.statExecutedInstType::SimdAddAcc            0                       # Class of executed instruction. (Count)
system.atomicCpu1.exec_context.thread_0.statExecutedInstType::SimdAlu            0                       # Class of executed instruction. (Count)
system.atomicCpu1.exec_context.thread_0.statExecutedInstType::SimdCmp            0                       # Class of executed instruction. (Count)
system.atomicCpu1.exec_context.thread_0.statExecutedInstType::SimdCvt            0                       # Class of executed instruction. (Count)
system.atomicCpu1.exec_context.thread_0.statExecutedInstType::SimdMisc            0                       # Class of executed instruction. (Count)
system.atomicCpu1.exec_context.thread_0.statExecutedInstType::SimdMult            0                       # Class of executed instruction. (Count)
system.atomicCpu1.exec_context.thread_0.statExecutedInstType::SimdMultAcc            0                       # Class of executed instruction. (Count)
system.atomicCpu1.exec_context.thread_0.statExecutedInstType::SimdShift            0                       # Class of executed instruction. (Count)
system.atomicCpu1.exec_context.thread_0.statExecutedInstType::SimdShiftAcc            0                       # Class of executed instruction. (Count)
system.atomicCpu1.exec_context.thread_0.statExecutedInstType::SimdDiv            0                       # Class of executed instruction. (Count)
system.atomicCpu1.exec_context.thread_0.statExecutedInstType::SimdSqrt            0                       # Class of executed instruction. (Count)
system.atomicCpu1.exec_context.thread_0.statExecutedInstType::SimdFloatAdd            0                       # Class of executed instruction. (Count)
system.atomicCpu1.exec_context.thread_0.statExecutedInstType::SimdFloatAlu            0                       # Class of executed instruction. (Count)
system.atomicCpu1.exec_context.thread_0.statExecutedInstType::SimdFloatCmp            0                       # Class of executed instruction. (Count)
system.atomicCpu1.exec_context.thread_0.statExecutedInstType::SimdFloatCvt            0                       # Class of executed instruction. (Count)
system.atomicCpu1.exec_context.thread_0.statExecutedInstType::SimdFloatDiv            0                       # Class of executed instruction. (Count)
system.atomicCpu1.exec_context.thread_0.statExecutedInstType::SimdFloatMisc            0                       # Class of executed instruction. (Count)
system.atomicCpu1.exec_context.thread_0.statExecutedInstType::SimdFloatMult            0                       # Class of executed instruction. (Count)
system.atomicCpu1.exec_context.thread_0.statExecutedInstType::SimdFloatMultAcc            0                       # Class of executed instruction. (Count)
system.atomicCpu1.exec_context.thread_0.statExecutedInstType::SimdFloatSqrt            0                       # Class of executed instruction. (Count)
system.atomicCpu1.exec_context.thread_0.statExecutedInstType::SimdReduceAdd            0                       # Class of executed instruction. (Count)
system.atomicCpu1.exec_context.thread_0.statExecutedInstType::SimdReduceAlu            0                       # Class of executed instruction. (Count)
system.atomicCpu1.exec_context.thread_0.statExecutedInstType::SimdReduceCmp            0                       # Class of executed instruction. (Count)
system.atomicCpu1.exec_context.thread_0.statExecutedInstType::SimdFloatReduceAdd            0                       # Class of executed instruction. (Count)
system.atomicCpu1.exec_context.thread_0.statExecutedInstType::SimdFloatReduceCmp            0                       # Class of executed instruction. (Count)
system.atomicCpu1.exec_context.thread_0.statExecutedInstType::SimdAes            0                       # Class of executed instruction. (Count)
system.atomicCpu1.exec_context.thread_0.statExecutedInstType::SimdAesMix            0                       # Class of executed instruction. (Count)
system.atomicCpu1.exec_context.thread_0.statExecutedInstType::SimdSha1Hash            0                       # Class of executed instruction. (Count)
system.atomicCpu1.exec_context.thread_0.statExecutedInstType::SimdSha1Hash2            0                       # Class of executed instruction. (Count)
system.atomicCpu1.exec_context.thread_0.statExecutedInstType::SimdSha256Hash            0                       # Class of executed instruction. (Count)
system.atomicCpu1.exec_context.thread_0.statExecutedInstType::SimdSha256Hash2            0                       # Class of executed instruction. (Count)
system.atomicCpu1.exec_context.thread_0.statExecutedInstType::SimdShaSigma2            0                       # Class of executed instruction. (Count)
system.atomicCpu1.exec_context.thread_0.statExecutedInstType::SimdShaSigma3            0                       # Class of executed instruction. (Count)
system.atomicCpu1.exec_context.thread_0.statExecutedInstType::SimdPredAlu            0                       # Class of executed instruction. (Count)
system.atomicCpu1.exec_context.thread_0.statExecutedInstType::MemRead            0                       # Class of executed instruction. (Count)
system.atomicCpu1.exec_context.thread_0.statExecutedInstType::MemWrite            0                       # Class of executed instruction. (Count)
system.atomicCpu1.exec_context.thread_0.statExecutedInstType::FloatMemRead            0                       # Class of executed instruction. (Count)
system.atomicCpu1.exec_context.thread_0.statExecutedInstType::FloatMemWrite            0                       # Class of executed instruction. (Count)
system.atomicCpu1.exec_context.thread_0.statExecutedInstType::IprAccess            0                       # Class of executed instruction. (Count)
system.atomicCpu1.exec_context.thread_0.statExecutedInstType::InstPrefetch            0                       # Class of executed instruction. (Count)
system.atomicCpu1.exec_context.thread_0.statExecutedInstType::total            0                       # Class of executed instruction. (Count)
system.atomicCpu1.mmu.dtb.rdAccesses                0                       # TLB accesses on read requests (Count)
system.atomicCpu1.mmu.dtb.wrAccesses                0                       # TLB accesses on write requests (Count)
system.atomicCpu1.mmu.dtb.rdMisses                  0                       # TLB misses on read requests (Count)
system.atomicCpu1.mmu.dtb.wrMisses                  0                       # TLB misses on write requests (Count)
system.atomicCpu1.mmu.dtb.walker.power_state.pwrStateResidencyTicks::UNDEFINED 26821297602750                       # Cumulative time (in ticks) in various power states (Tick)
system.atomicCpu1.mmu.itb.rdAccesses                0                       # TLB accesses on read requests (Count)
system.atomicCpu1.mmu.itb.wrAccesses                0                       # TLB accesses on write requests (Count)
system.atomicCpu1.mmu.itb.rdMisses                  0                       # TLB misses on read requests (Count)
system.atomicCpu1.mmu.itb.wrMisses                  0                       # TLB misses on write requests (Count)
system.atomicCpu1.mmu.itb.walker.power_state.pwrStateResidencyTicks::UNDEFINED 26821297602750                       # Cumulative time (in ticks) in various power states (Tick)
system.atomicCpu1.power_state.pwrStateResidencyTicks::OFF 26821297602750                       # Cumulative time (in ticks) in various power states (Tick)
system.atomicCpu1.thread_0.numInsts                 0                       # Number of Instructions committed (Count)
system.atomicCpu1.thread_0.numOps                   0                       # Number of Ops committed (Count)
system.atomicCpu1.thread_0.numMemRefs               0                       # Number of Memory References (Count)
system.caches.delayHistogram::bucket_size           64                       # delay histogram for all message (Unspecified)
system.caches.delayHistogram::max_bucket          639                       # delay histogram for all message (Unspecified)
system.caches.delayHistogram::samples       118295381                       # delay histogram for all message (Unspecified)
system.caches.delayHistogram::mean           0.295819                       # delay histogram for all message (Unspecified)
system.caches.delayHistogram::stdev          1.517652                       # delay histogram for all message (Unspecified)
system.caches.delayHistogram             |   118295321    100.00%    100.00% |          52      0.00%    100.00% |           0      0.00%    100.00% |           1      0.00%    100.00% |           2      0.00%    100.00% |           0      0.00%    100.00% |           1      0.00%    100.00% |           1      0.00%    100.00% |           3      0.00%    100.00% |           0      0.00%    100.00% # delay histogram for all message (Unspecified)
system.caches.delayHistogram::total         118295381                       # delay histogram for all message (Unspecified)
system.caches.m_outstandReqHistSeqr::bucket_size            1                       (Unspecified)
system.caches.m_outstandReqHistSeqr::max_bucket            9                       (Unspecified)
system.caches.m_outstandReqHistSeqr::samples   3233382625                       (Unspecified)
system.caches.m_outstandReqHistSeqr::mean            1                       (Unspecified)
system.caches.m_outstandReqHistSeqr::gmean            1                       (Unspecified)
system.caches.m_outstandReqHistSeqr      |           0      0.00%      0.00% |  3233382625    100.00%    100.00% |           0      0.00%    100.00% |           0      0.00%    100.00% |           0      0.00%    100.00% |           0      0.00%    100.00% |           0      0.00%    100.00% |           0      0.00%    100.00% |           0      0.00%    100.00% |           0      0.00%    100.00% (Unspecified)
system.caches.m_outstandReqHistSeqr::total   3233382625                       (Unspecified)
system.caches.m_latencyHistSeqr::bucket_size          512                       (Unspecified)
system.caches.m_latencyHistSeqr::max_bucket         5119                       (Unspecified)
system.caches.m_latencyHistSeqr::samples   3233382624                       (Unspecified)
system.caches.m_latencyHistSeqr::mean        3.946171                       (Unspecified)
system.caches.m_latencyHistSeqr::gmean       1.033451                       (Unspecified)
system.caches.m_latencyHistSeqr::stdev      44.027811                       (Unspecified)
system.caches.m_latencyHistSeqr          |  3225590016     99.76%     99.76% |     7264689      0.22%     99.98% |      109932      0.00%     99.99% |      393974      0.01%    100.00% |       23633      0.00%    100.00% |         368      0.00%    100.00% |          12      0.00%    100.00% |           0      0.00%    100.00% |           0      0.00%    100.00% |           0      0.00%    100.00% (Unspecified)
system.caches.m_latencyHistSeqr::total     3233382624                       (Unspecified)
system.caches.m_hitLatencyHistSeqr::bucket_size            1                       (Unspecified)
system.caches.m_hitLatencyHistSeqr::max_bucket            9                       (Unspecified)
system.caches.m_hitLatencyHistSeqr::samples   3216320043                       (Unspecified)
system.caches.m_hitLatencyHistSeqr::mean            1                       (Unspecified)
system.caches.m_hitLatencyHistSeqr::gmean            1                       (Unspecified)
system.caches.m_hitLatencyHistSeqr       |           0      0.00%      0.00% |  3216320043    100.00%    100.00% |           0      0.00%    100.00% |           0      0.00%    100.00% |           0      0.00%    100.00% |           0      0.00%    100.00% |           0      0.00%    100.00% |           0      0.00%    100.00% |           0      0.00%    100.00% |           0      0.00%    100.00% (Unspecified)
system.caches.m_hitLatencyHistSeqr::total   3216320043                       (Unspecified)
system.caches.m_missLatencyHistSeqr::bucket_size          512                       (Unspecified)
system.caches.m_missLatencyHistSeqr::max_bucket         5119                       (Unspecified)
system.caches.m_missLatencyHistSeqr::samples     17062581                       (Unspecified)
system.caches.m_missLatencyHistSeqr::mean   559.303509                       (Unspecified)
system.caches.m_missLatencyHistSeqr::gmean   510.471222                       (Unspecified)
system.caches.m_missLatencyHistSeqr::stdev   239.333744                       (Unspecified)
system.caches.m_missLatencyHistSeqr      |     9269973     54.33%     54.33% |     7264689     42.58%     96.91% |      109932      0.64%     97.55% |      393974      2.31%     99.86% |       23633      0.14%    100.00% |         368      0.00%    100.00% |          12      0.00%    100.00% |           0      0.00%    100.00% |           0      0.00%    100.00% |           0      0.00%    100.00% (Unspecified)
system.caches.m_missLatencyHistSeqr::total     17062581                       (Unspecified)
system.caches.delayVCHist.vnet_0::bucket_size           64                       # delay histogram for vnet_0 (Unspecified)
system.caches.delayVCHist.vnet_0::max_bucket          639                       # delay histogram for vnet_0 (Unspecified)
system.caches.delayVCHist.vnet_0::samples     50782209                       # delay histogram for vnet_0 (Unspecified)
system.caches.delayVCHist.vnet_0::mean       0.688717                       # delay histogram for vnet_0 (Unspecified)
system.caches.delayVCHist.vnet_0::stdev      2.256718                       # delay histogram for vnet_0 (Unspecified)
system.caches.delayVCHist.vnet_0         |    50782149    100.00%    100.00% |          52      0.00%    100.00% |           0      0.00%    100.00% |           1      0.00%    100.00% |           2      0.00%    100.00% |           0      0.00%    100.00% |           1      0.00%    100.00% |           1      0.00%    100.00% |           3      0.00%    100.00% |           0      0.00%    100.00% # delay histogram for vnet_0 (Unspecified)
system.caches.delayVCHist.vnet_0::total      50782209                       # delay histogram for vnet_0 (Unspecified)
system.caches.delayVCHist.vnet_1::bucket_size            1                       # delay histogram for vnet_1 (Unspecified)
system.caches.delayVCHist.vnet_1::max_bucket            9                       # delay histogram for vnet_1 (Unspecified)
system.caches.delayVCHist.vnet_1::samples     67386886                       # delay histogram for vnet_1 (Unspecified)
system.caches.delayVCHist.vnet_1::mean       0.000288                       # delay histogram for vnet_1 (Unspecified)
system.caches.delayVCHist.vnet_1::stdev      0.040015                       # delay histogram for vnet_1 (Unspecified)
system.caches.delayVCHist.vnet_1         |    67382692     99.99%     99.99% |           0      0.00%     99.99% |        1128      0.00%    100.00% |           0      0.00%    100.00% |        1290      0.00%    100.00% |           0      0.00%    100.00% |        1104      0.00%    100.00% |           0      0.00%    100.00% |         672      0.00%    100.00% |           0      0.00%    100.00% # delay histogram for vnet_1 (Unspecified)
system.caches.delayVCHist.vnet_1::total      67386886                       # delay histogram for vnet_1 (Unspecified)
system.caches.delayVCHist.vnet_2::bucket_size            1                       # delay histogram for vnet_2 (Unspecified)
system.caches.delayVCHist.vnet_2::max_bucket            9                       # delay histogram for vnet_2 (Unspecified)
system.caches.delayVCHist.vnet_2::samples       126286                       # delay histogram for vnet_2 (Unspecified)
system.caches.delayVCHist.vnet_2::mean       0.000095                       # delay histogram for vnet_2 (Unspecified)
system.caches.delayVCHist.vnet_2::stdev      0.013785                       # delay histogram for vnet_2 (Unspecified)
system.caches.delayVCHist.vnet_2         |      126280    100.00%    100.00% |           0      0.00%    100.00% |           6      0.00%    100.00% |           0      0.00%    100.00% |           0      0.00%    100.00% |           0      0.00%    100.00% |           0      0.00%    100.00% |           0      0.00%    100.00% |           0      0.00%    100.00% |           0      0.00%    100.00% # delay histogram for vnet_2 (Unspecified)
system.caches.delayVCHist.vnet_2::total        126286                       # delay histogram for vnet_2 (Unspecified)
system.caches.L1Cache_Controller.Load    |   211706063     50.04%     50.04% |   211374576     49.96%    100.00% (Unspecified)
system.caches.L1Cache_Controller.Load::total    423080639                       (Unspecified)
system.caches.L1Cache_Controller.Ifetch  |  1205135279     50.01%     50.01% |  1204437647     49.99%    100.00% (Unspecified)
system.caches.L1Cache_Controller.Ifetch::total   2409572926                       (Unspecified)
system.caches.L1Cache_Controller.Store   |   200377912     50.00%     50.00% |   200351148     50.00%    100.00% (Unspecified)
system.caches.L1Cache_Controller.Store::total    400729060                       (Unspecified)
system.caches.L1Cache_Controller.Inv     |       49583     46.17%     46.17% |       57820     53.83%    100.00% (Unspecified)
system.caches.L1Cache_Controller.Inv::total       107403                       (Unspecified)
system.caches.L1Cache_Controller.L1_Replacement |     8477811     50.06%     50.06% |     8457445     49.94%    100.00% (Unspecified)
system.caches.L1Cache_Controller.L1_Replacement::total     16935256                       (Unspecified)
system.caches.L1Cache_Controller.Fwd_GETX |          21     12.57%     12.57% |         146     87.43%    100.00% (Unspecified)
system.caches.L1Cache_Controller.Fwd_GETX::total          167                       (Unspecified)
system.caches.L1Cache_Controller.Fwd_GETS |       15402     82.29%     82.29% |        3314     17.71%    100.00% (Unspecified)
system.caches.L1Cache_Controller.Fwd_GETS::total        18716                       (Unspecified)
system.caches.L1Cache_Controller.Data    |         521     99.81%     99.81% |           1      0.19%    100.00% (Unspecified)
system.caches.L1Cache_Controller.Data::total          522                       (Unspecified)
system.caches.L1Cache_Controller.Data_Exclusive |     6248475     49.96%     49.96% |     6259632     50.04%    100.00% (Unspecified)
system.caches.L1Cache_Controller.Data_Exclusive::total     12508107                       (Unspecified)
system.caches.L1Cache_Controller.DataS_fromL1 |        3314     17.71%     17.71% |       15402     82.29%    100.00% (Unspecified)
system.caches.L1Cache_Controller.DataS_fromL1::total        18716                       (Unspecified)
system.caches.L1Cache_Controller.Data_all_Acks |     2278466     50.39%     50.39% |     2243296     49.61%    100.00% (Unspecified)
system.caches.L1Cache_Controller.Data_all_Acks::total      4521762                       (Unspecified)
system.caches.L1Cache_Controller.Ack     |       13381     99.31%     99.31% |          93      0.69%    100.00% (Unspecified)
system.caches.L1Cache_Controller.Ack::total        13474                       (Unspecified)
system.caches.L1Cache_Controller.Ack_all |       13902     99.33%     99.33% |          94      0.67%    100.00% (Unspecified)
system.caches.L1Cache_Controller.Ack_all::total        13996                       (Unspecified)
system.caches.L1Cache_Controller.WB_Ack  |     8403619     49.97%     49.97% |     8412094     50.03%    100.00% (Unspecified)
system.caches.L1Cache_Controller.WB_Ack::total     16815713                       (Unspecified)
system.caches.L1Cache_Controller.NP.Load |     6253829     49.96%     49.96% |     6263501     50.04%    100.00% (Unspecified)
system.caches.L1Cache_Controller.NP.Load::total     12517330                       (Unspecified)
system.caches.L1Cache_Controller.NP.Ifetch |       56046     66.52%     66.52% |       28205     33.48%    100.00% (Unspecified)
system.caches.L1Cache_Controller.NP.Ifetch::total        84251                       (Unspecified)
system.caches.L1Cache_Controller.NP.Store |     2176572     50.02%     50.02% |     2174404     49.98%    100.00% (Unspecified)
system.caches.L1Cache_Controller.NP.Store::total      4350976                       (Unspecified)
system.caches.L1Cache_Controller.NP.Inv  |         839     41.74%     41.74% |        1171     58.26%    100.00% (Unspecified)
system.caches.L1Cache_Controller.NP.Inv::total         2010                       (Unspecified)
system.caches.L1Cache_Controller.I.Load  |       14138     34.46%     34.46% |       26891     65.54%    100.00% (Unspecified)
system.caches.L1Cache_Controller.I.Load::total        41029                       (Unspecified)
system.caches.L1Cache_Controller.I.Ifetch |       23340     54.43%     54.43% |       19540     45.57%    100.00% (Unspecified)
system.caches.L1Cache_Controller.I.Ifetch::total        42880                       (Unspecified)
system.caches.L1Cache_Controller.I.Store |        6851     54.21%     54.21% |        5788     45.79%    100.00% (Unspecified)
system.caches.L1Cache_Controller.I.Store::total        12639                       (Unspecified)
system.caches.L1Cache_Controller.I.L1_Replacement |        4086     49.47%     49.47% |        4173     50.53%    100.00% (Unspecified)
system.caches.L1Cache_Controller.I.L1_Replacement::total         8259                       (Unspecified)
system.caches.L1Cache_Controller.S.Load  |    76589760     49.96%     49.96% |    76711135     50.04%    100.00% (Unspecified)
system.caches.L1Cache_Controller.S.Load::total    153300895                       (Unspecified)
system.caches.L1Cache_Controller.S.Ifetch |  1205055893     50.01%     50.01% |  1204389902     49.99%    100.00% (Unspecified)
system.caches.L1Cache_Controller.S.Ifetch::total   2409445795                       (Unspecified)
system.caches.L1Cache_Controller.S.Store |       13381     99.29%     99.29% |          96      0.71%    100.00% (Unspecified)
system.caches.L1Cache_Controller.S.Store::total        13477                       (Unspecified)
system.caches.L1Cache_Controller.S.Inv   |       30493     43.09%     43.09% |       40272     56.91%    100.00% (Unspecified)
system.caches.L1Cache_Controller.S.Inv::total        70765                       (Unspecified)
system.caches.L1Cache_Controller.S.L1_Replacement |       70106     63.00%     63.00% |       41178     37.00%    100.00% (Unspecified)
system.caches.L1Cache_Controller.S.L1_Replacement::total       111284                       (Unspecified)
system.caches.L1Cache_Controller.E.Load  |    93895092     50.02%     50.02% |    93833936     49.98%    100.00% (Unspecified)
system.caches.L1Cache_Controller.E.Load::total    187729028                       (Unspecified)
system.caches.L1Cache_Controller.E.Store |       10894     56.38%     56.38% |        8428     43.62%    100.00% (Unspecified)
system.caches.L1Cache_Controller.E.Store::total        19322                       (Unspecified)
system.caches.L1Cache_Controller.E.Inv   |        4842     52.04%     52.04% |        4463     47.96%    100.00% (Unspecified)
system.caches.L1Cache_Controller.E.Inv::total         9305                       (Unspecified)
system.caches.L1Cache_Controller.E.L1_Replacement |     6227538     49.95%     49.95% |     6239718     50.05%    100.00% (Unspecified)
system.caches.L1Cache_Controller.E.L1_Replacement::total     12467256                       (Unspecified)
system.caches.L1Cache_Controller.E.Fwd_GETX |           3      2.11%      2.11% |         139     97.89%    100.00% (Unspecified)
system.caches.L1Cache_Controller.E.Fwd_GETX::total          142                       (Unspecified)
system.caches.L1Cache_Controller.E.Fwd_GETS |        1542     32.77%     32.77% |        3164     67.23%    100.00% (Unspecified)
system.caches.L1Cache_Controller.E.Fwd_GETS::total         4706                       (Unspecified)
system.caches.L1Cache_Controller.M.Load  |    34953244     50.30%     50.30% |    34539113     49.70%    100.00% (Unspecified)
system.caches.L1Cache_Controller.M.Load::total     69492357                       (Unspecified)
system.caches.L1Cache_Controller.M.Store |   198170214     50.00%     50.00% |   198162432     50.00%    100.00% (Unspecified)
system.caches.L1Cache_Controller.M.Store::total    396332646                       (Unspecified)
system.caches.L1Cache_Controller.M.Inv   |       13409     52.96%     52.96% |       11908     47.04%    100.00% (Unspecified)
system.caches.L1Cache_Controller.M.Inv::total        25317                       (Unspecified)
system.caches.L1Cache_Controller.M.L1_Replacement |     2176081     50.04%     50.04% |     2172376     49.96%    100.00% (Unspecified)
system.caches.L1Cache_Controller.M.L1_Replacement::total      4348457                       (Unspecified)
system.caches.L1Cache_Controller.M.Fwd_GETX |          18     72.00%     72.00% |           7     28.00%    100.00% (Unspecified)
system.caches.L1Cache_Controller.M.Fwd_GETX::total           25                       (Unspecified)
system.caches.L1Cache_Controller.M.Fwd_GETS |       13860     98.93%     98.93% |         150      1.07%    100.00% (Unspecified)
system.caches.L1Cache_Controller.M.Fwd_GETS::total        14010                       (Unspecified)
system.caches.L1Cache_Controller.IS.Inv  |           0      0.00%      0.00% |           3    100.00%    100.00% (Unspecified)
system.caches.L1Cache_Controller.IS.Inv::total            3                       (Unspecified)
system.caches.L1Cache_Controller.IS.Data_Exclusive |     6248475     49.96%     49.96% |     6259632     50.04%    100.00% (Unspecified)
system.caches.L1Cache_Controller.IS.Data_Exclusive::total     12508107                       (Unspecified)
system.caches.L1Cache_Controller.IS.DataS_fromL1 |        3314     17.71%     17.71% |       15399     82.29%    100.00% (Unspecified)
system.caches.L1Cache_Controller.IS.DataS_fromL1::total        18713                       (Unspecified)
system.caches.L1Cache_Controller.IS.Data_all_Acks |       95564     60.23%     60.23% |       63103     39.77%    100.00% (Unspecified)
system.caches.L1Cache_Controller.IS.Data_all_Acks::total       158667                       (Unspecified)
system.caches.L1Cache_Controller.IM.Data |         521     99.81%     99.81% |           1      0.19%    100.00% (Unspecified)
system.caches.L1Cache_Controller.IM.Data::total          522                       (Unspecified)
system.caches.L1Cache_Controller.IM.Data_all_Acks |     2182902     50.03%     50.03% |     2180193     49.97%    100.00% (Unspecified)
system.caches.L1Cache_Controller.IM.Data_all_Acks::total      4363095                       (Unspecified)
system.caches.L1Cache_Controller.SM.Inv  |           0      0.00%      0.00% |           3    100.00%    100.00% (Unspecified)
system.caches.L1Cache_Controller.SM.Inv::total            3                       (Unspecified)
system.caches.L1Cache_Controller.SM.Ack  |       13381     99.31%     99.31% |          93      0.69%    100.00% (Unspecified)
system.caches.L1Cache_Controller.SM.Ack::total        13474                       (Unspecified)
system.caches.L1Cache_Controller.SM.Ack_all |       13902     99.33%     99.33% |          94      0.67%    100.00% (Unspecified)
system.caches.L1Cache_Controller.SM.Ack_all::total        13996                       (Unspecified)
system.caches.L1Cache_Controller.IS_I.DataS_fromL1 |           0      0.00%      0.00% |           3    100.00%    100.00% (Unspecified)
system.caches.L1Cache_Controller.IS_I.DataS_fromL1::total            3                       (Unspecified)
system.caches.L1Cache_Controller.M_I.WB_Ack |     8403619     49.97%     49.97% |     8412094     50.03%    100.00% (Unspecified)
system.caches.L1Cache_Controller.M_I.WB_Ack::total     16815713                       (Unspecified)
system.caches.Directory_Controller.Fetch     16756773      0.00%      0.00% (Unspecified)
system.caches.Directory_Controller.Data       4192508      0.00%      0.00% (Unspecified)
system.caches.Directory_Controller.Memory_Data     16756772      0.00%      0.00% (Unspecified)
system.caches.Directory_Controller.Memory_Ack      4192508      0.00%      0.00% (Unspecified)
system.caches.Directory_Controller.CleanReplacement     12433193      0.00%      0.00% (Unspecified)
system.caches.Directory_Controller.I.Fetch     16756773      0.00%      0.00% (Unspecified)
system.caches.Directory_Controller.M.Data      4192508      0.00%      0.00% (Unspecified)
system.caches.Directory_Controller.M.CleanReplacement     12433193      0.00%      0.00% (Unspecified)
system.caches.Directory_Controller.IM.Memory_Data     16756772      0.00%      0.00% (Unspecified)
system.caches.Directory_Controller.MI.Memory_Ack      4192508      0.00%      0.00% (Unspecified)
system.caches.L2Cache_Controller.L1_GET_INSTR |        6610      5.20%      5.20% |       20345     16.00%     21.20% |       17448     13.72%     34.92% |        4915      3.87%     38.78% |       12120      9.53%     48.31% |       22013     17.31%     65.63% |       21537     16.94%     82.56% |       22175     17.44%    100.00% (Unspecified)
system.caches.L2Cache_Controller.L1_GET_INSTR::total       127163                       (Unspecified)
system.caches.L2Cache_Controller.L1_GETS |     1576869     12.55%     12.55% |     1571068     12.50%     25.06% |     1568191     12.48%     37.54% |     1566716     12.47%     50.01% |     1567807     12.48%     62.49% |     1566258     12.47%     74.95% |     1579026     12.57%     87.52% |     1567626     12.48%    100.00% (Unspecified)
system.caches.L2Cache_Controller.L1_GETS::total     12563561                       (Unspecified)
system.caches.L2Cache_Controller.L1_GETX |      547469     12.55%     12.55% |      545422     12.50%     25.05% |      543927     12.46%     37.51% |      544669     12.48%     49.99% |      544263     12.47%     62.46% |      547704     12.55%     75.02% |      544997     12.49%     87.50% |      545257     12.50%    100.00% (Unspecified)
system.caches.L2Cache_Controller.L1_GETX::total      4363708                       (Unspecified)
system.caches.L2Cache_Controller.L1_UPGRADE |        3219     18.08%     18.08% |        1676      9.41%     27.50% |           9      0.05%     27.55% |           5      0.03%     27.58% |          35      0.20%     27.77% |           5      0.03%     27.80% |       12812     71.97%     99.77% |          41      0.23%    100.00% (Unspecified)
system.caches.L2Cache_Controller.L1_UPGRADE::total        17802                       (Unspecified)
system.caches.L2Cache_Controller.L1_PUTX |     2103356     12.51%     12.51% |     2102988     12.51%     25.01% |     2099779     12.49%     37.50% |     2101295     12.50%     50.00% |     2102142     12.50%     62.50% |     2103701     12.51%     75.01% |     2101602     12.50%     87.51% |     2100850     12.49%    100.00% (Unspecified)
system.caches.L2Cache_Controller.L1_PUTX::total     16815713                       (Unspecified)
system.caches.L2Cache_Controller.L2_Replacement |      521178     12.50%     12.50% |      521138     12.50%     25.00% |      521076     12.50%     37.50% |      521140     12.50%     50.00% |      521181     12.50%     62.50% |      521208     12.50%     75.00% |      521184     12.50%     87.50% |      521137     12.50%    100.00% (Unspecified)
system.caches.L2Cache_Controller.L2_Replacement::total      4169242                       (Unspecified)
system.caches.L2Cache_Controller.L2_Replacement_clean |     1557936     12.51%     12.51% |     1557742     12.51%     25.01% |     1556661     12.50%     37.51% |     1556449     12.50%     50.00% |     1556868     12.50%     62.50% |     1557324     12.50%     75.01% |     1556292     12.49%     87.50% |     1557187     12.50%    100.00% (Unspecified)
system.caches.L2Cache_Controller.L2_Replacement_clean::total     12456459                       (Unspecified)
system.caches.L2Cache_Controller.Mem_Data |     2095498     12.51%     12.51% |     2095264     12.50%     25.01% |     2094120     12.50%     37.51% |     2093973     12.50%     50.00% |     2094433     12.50%     62.50% |     2094916     12.50%     75.00% |     2093860     12.50%     87.50% |     2094708     12.50%    100.00% (Unspecified)
system.caches.L2Cache_Controller.Mem_Data::total     16756772                       (Unspecified)
system.caches.L2Cache_Controller.Mem_Ack |     2079114     12.51%     12.51% |     2078880     12.50%     25.01% |     2077737     12.50%     37.51% |     2077589     12.50%     50.00% |     2078049     12.50%     62.50% |     2078532     12.50%     75.00% |     2077476     12.50%     87.50% |     2078324     12.50%    100.00% (Unspecified)
system.caches.L2Cache_Controller.Mem_Ack::total     16625701                       (Unspecified)
system.caches.L2Cache_Controller.WB_Data |        6773     17.22%     17.22% |        4629     11.77%     28.99% |        2639      6.71%     35.70% |        3265      8.30%     44.01% |        2991      7.61%     51.61% |        3847      9.78%     61.39% |       11705     29.76%     91.16% |        3478      8.84%    100.00% (Unspecified)
system.caches.L2Cache_Controller.WB_Data::total        39327                       (Unspecified)
system.caches.L2Cache_Controller.WB_Data_clean |         937     19.91%     19.91% |         624     13.26%     33.17% |         632     13.43%     46.60% |         563     11.96%     58.56% |         523     11.11%     69.68% |         471     10.01%     79.69% |         422      8.97%     88.65% |         534     11.35%    100.00% (Unspecified)
system.caches.L2Cache_Controller.WB_Data_clean::total         4706                       (Unspecified)
system.caches.L2Cache_Controller.Ack     |        4207     15.92%     15.92% |        3425     12.96%     28.89% |        3304     12.51%     41.39% |        2742     10.38%     51.77% |        3301     12.49%     64.27% |        3236     12.25%     76.52% |        2862     10.83%     87.35% |        3342     12.65%    100.00% (Unspecified)
system.caches.L2Cache_Controller.Ack::total        26419                       (Unspecified)
system.caches.L2Cache_Controller.Ack_all |        6013     14.43%     14.43% |        5927     14.22%     28.65% |        5297     12.71%     41.36% |        4594     11.02%     52.39% |        5278     12.67%     65.05% |        4816     11.56%     76.61% |        4585     11.00%     87.61% |        5161     12.39%    100.00% (Unspecified)
system.caches.L2Cache_Controller.Ack_all::total        41671                       (Unspecified)
system.caches.L2Cache_Controller.Unblock |        4525     24.18%     24.18% |        2207     11.79%     35.97% |         654      3.49%     39.46% |         584      3.12%     42.58% |         578      3.09%     45.67% |         489      2.61%     48.28% |        9090     48.57%     96.85% |         589      3.15%    100.00% (Unspecified)
system.caches.L2Cache_Controller.Unblock::total        18716                       (Unspecified)
system.caches.L2Cache_Controller.Exclusive_Unblock |     2114108     12.52%     12.52% |     2111853     12.51%     25.03% |     2106303     12.47%     37.50% |     2108267     12.49%     49.99% |     2109056     12.49%     62.48% |     2111008     12.50%     74.98% |     2116957     12.54%     87.52% |     2107646     12.48%    100.00% (Unspecified)
system.caches.L2Cache_Controller.Exclusive_Unblock::total     16885198                       (Unspecified)
system.caches.L2Cache_Controller.NP.L1_GET_INSTR |        3633     14.07%     14.07% |        3568     13.82%     27.89% |        3004     11.63%     39.53% |        2750     10.65%     50.18% |        3251     12.59%     62.77% |        3189     12.35%     75.12% |        2923     11.32%     86.44% |        3501     13.56%    100.00% (Unspecified)
system.caches.L2Cache_Controller.NP.L1_GET_INSTR::total        25819                       (Unspecified)
system.caches.L2Cache_Controller.NP.L1_GETS |     1560876     12.50%     12.50% |     1560870     12.50%     25.01% |     1560682     12.50%     37.51% |     1560362     12.50%     50.01% |     1560383     12.50%     62.51% |     1560241     12.50%     75.00% |     1560119     12.50%     87.50% |     1560346     12.50%    100.00% (Unspecified)
system.caches.L2Cache_Controller.NP.L1_GETS::total     12483879                       (Unspecified)
system.caches.L2Cache_Controller.NP.L1_GETX |      530989     12.50%     12.50% |      530826     12.50%     25.00% |      530435     12.49%     37.49% |      530861     12.50%     49.99% |      530799     12.50%     62.49% |      531486     12.51%     75.00% |      530818     12.50%     87.50% |      530861     12.50%    100.00% (Unspecified)
system.caches.L2Cache_Controller.NP.L1_GETX::total      4247075                       (Unspecified)
system.caches.L2Cache_Controller.SS.L1_GET_INSTR |        1785      1.93%      1.93% |       15397     16.69%     18.62% |       13378     14.50%     33.12% |        1130      1.22%     34.35% |        7668      8.31%     42.66% |       17646     19.12%     61.78% |       17623     19.10%     80.88% |       17642     19.12%    100.00% (Unspecified)
system.caches.L2Cache_Controller.SS.L1_GET_INSTR::total        92269                       (Unspecified)
system.caches.L2Cache_Controller.SS.L1_GETS |        7791     28.58%     28.58% |        3556     13.05%     41.63% |        4292     15.75%     57.38% |        2195      8.05%     65.43% |        2193      8.05%     73.48% |        2065      7.58%     81.05% |        1240      4.55%     85.60% |        3924     14.40%    100.00% (Unspecified)
system.caches.L2Cache_Controller.SS.L1_GETS::total        27256                       (Unspecified)
system.caches.L2Cache_Controller.SS.L1_GETX |         359     68.77%     68.77% |           0      0.00%     68.77% |           0      0.00%     68.77% |           0      0.00%     68.77% |           2      0.38%     69.16% |           0      0.00%     69.16% |         161     30.84%    100.00% |           0      0.00%    100.00% (Unspecified)
system.caches.L2Cache_Controller.SS.L1_GETX::total          522                       (Unspecified)
system.caches.L2Cache_Controller.SS.L1_UPGRADE |        3216     23.87%     23.87% |        1675     12.43%     36.30% |           9      0.07%     36.37% |           5      0.04%     36.40% |          35      0.26%     36.66% |           4      0.03%     36.69% |        8489     63.00%     99.70% |          41      0.30%    100.00% (Unspecified)
system.caches.L2Cache_Controller.SS.L1_UPGRADE::total        13474                       (Unspecified)
system.caches.L2Cache_Controller.SS.L2_Replacement |          16     11.85%     11.85% |          18     13.33%     25.19% |          17     12.59%     37.78% |          17     12.59%     50.37% |          18     13.33%     63.70% |          16     11.85%     75.56% |          17     12.59%     88.15% |          16     11.85%    100.00% (Unspecified)
system.caches.L2Cache_Controller.SS.L2_Replacement::total          135                       (Unspecified)
system.caches.L2Cache_Controller.SS.L2_Replacement_clean |        5067     15.72%     15.72% |        4305     13.36%     29.08% |        4020     12.47%     41.55% |        3440     10.67%     52.22% |        3869     12.00%     64.23% |        3817     11.84%     76.07% |        3353     10.40%     86.47% |        4360     13.53%    100.00% (Unspecified)
system.caches.L2Cache_Controller.SS.L2_Replacement_clean::total        32231                       (Unspecified)
system.caches.L2Cache_Controller.M.L1_GETS |        3107     11.78%     11.78% |        4164     15.79%     27.58% |        2121      8.04%     35.62% |        3400     12.89%     48.51% |        4519     17.14%     65.65% |        3263     12.37%     78.03% |        3408     12.92%     90.95% |        2386      9.05%    100.00% (Unspecified)
system.caches.L2Cache_Controller.M.L1_GETS::total        26368                       (Unspecified)
system.caches.L2Cache_Controller.M.L1_GETX |       15972     13.79%     13.79% |       14574     12.58%     26.37% |       13486     11.64%     38.01% |       13792     11.90%     49.91% |       13446     11.61%     61.52% |       16207     13.99%     75.51% |       13998     12.08%     87.59% |       14379     12.41%    100.00% (Unspecified)
system.caches.L2Cache_Controller.M.L1_GETX::total       115854                       (Unspecified)
system.caches.L2Cache_Controller.M.L2_Replacement |      520904     12.50%     12.50% |      520882     12.50%     25.00% |      520866     12.50%     37.50% |      520871     12.50%     50.00% |      520933     12.50%     62.50% |      520903     12.50%     75.00% |      520888     12.50%     87.50% |      520790     12.50%    100.00% (Unspecified)
system.caches.L2Cache_Controller.M.L2_Replacement::total      4167037                       (Unspecified)
system.caches.L2Cache_Controller.M.L2_Replacement_clean |     1549012     12.50%     12.50% |     1549025     12.50%     25.00% |     1548957     12.50%     37.50% |     1548880     12.50%     50.00% |     1548902     12.50%     62.50% |     1548984     12.50%     75.00% |     1548966     12.50%     87.50% |     1548950     12.50%    100.00% (Unspecified)
system.caches.L2Cache_Controller.M.L2_Replacement_clean::total     12391676                       (Unspecified)
system.caches.L2Cache_Controller.MT.L1_GETS |        4525     24.18%     24.18% |        2207     11.79%     35.97% |         654      3.49%     39.46% |         584      3.12%     42.58% |         578      3.09%     45.67% |         489      2.61%     48.28% |        9090     48.57%     96.85% |         589      3.15%    100.00% (Unspecified)
system.caches.L2Cache_Controller.MT.L1_GETS::total        18716                       (Unspecified)
system.caches.L2Cache_Controller.MT.L1_GETX |         139     83.23%     83.23% |           8      4.79%     88.02% |           2      1.20%     89.22% |           5      2.99%     92.22% |           3      1.80%     94.01% |           3      1.80%     95.81% |           4      2.40%     98.20% |           3      1.80%    100.00% (Unspecified)
system.caches.L2Cache_Controller.MT.L1_GETX::total          167                       (Unspecified)
system.caches.L2Cache_Controller.MT.L1_PUTX |     2103356     12.51%     12.51% |     2102988     12.51%     25.01% |     2099779     12.49%     37.50% |     2101295     12.50%     50.00% |     2102142     12.50%     62.50% |     2103701     12.51%     75.01% |     2101602     12.50%     87.51% |     2100850     12.49%    100.00% (Unspecified)
system.caches.L2Cache_Controller.MT.L1_PUTX::total     16815713                       (Unspecified)
system.caches.L2Cache_Controller.MT.L2_Replacement |         258     12.46%     12.46% |         238     11.50%     23.96% |         193      9.32%     33.29% |         252     12.17%     45.46% |         230     11.11%     56.57% |         289     13.96%     70.53% |         279     13.48%     84.01% |         331     15.99%    100.00% (Unspecified)
system.caches.L2Cache_Controller.MT.L2_Replacement::total         2070                       (Unspecified)
system.caches.L2Cache_Controller.MT.L2_Replacement_clean |        3857     11.85%     11.85% |        4412     13.55%     25.40% |        3684     11.32%     36.72% |        4129     12.68%     49.40% |        4097     12.59%     61.99% |        4523     13.89%     75.88% |        3973     12.21%     88.09% |        3877     11.91%    100.00% (Unspecified)
system.caches.L2Cache_Controller.MT.L2_Replacement_clean::total        32552                       (Unspecified)
system.caches.L2Cache_Controller.M_I.L1_GET_INSTR |           0      0.00%      0.00% |           0      0.00%      0.00% |           0      0.00%      0.00% |           0      0.00%      0.00% |           0      0.00%      0.00% |           0      0.00%      0.00% |           0      0.00%      0.00% |          32    100.00%    100.00% (Unspecified)
system.caches.L2Cache_Controller.M_I.L1_GET_INSTR::total           32                       (Unspecified)
system.caches.L2Cache_Controller.M_I.L1_GETS |          17     25.37%     25.37% |           4      5.97%     31.34% |           9     13.43%     44.78% |          14     20.90%     65.67% |           3      4.48%     70.15% |           4      5.97%     76.12% |           5      7.46%     83.58% |          11     16.42%    100.00% (Unspecified)
system.caches.L2Cache_Controller.M_I.L1_GETS::total           67                       (Unspecified)
system.caches.L2Cache_Controller.M_I.L1_GETX |          10     12.05%     12.05% |          11     13.25%     25.30% |           4      4.82%     30.12% |          10     12.05%     42.17% |          12     14.46%     56.63% |           8      9.64%     66.27% |          15     18.07%     84.34% |          13     15.66%    100.00% (Unspecified)
system.caches.L2Cache_Controller.M_I.L1_GETX::total           83                       (Unspecified)
system.caches.L2Cache_Controller.M_I.Mem_Ack |     2079114     12.51%     12.51% |     2078880     12.50%     25.01% |     2077737     12.50%     37.51% |     2077589     12.50%     50.00% |     2078049     12.50%     62.50% |     2078532     12.50%     75.00% |     2077476     12.50%     87.50% |     2078324     12.50%    100.00% (Unspecified)
system.caches.L2Cache_Controller.M_I.Mem_Ack::total     16625701                       (Unspecified)
system.caches.L2Cache_Controller.MT_I.WB_Data |         256     12.48%     12.48% |         235     11.46%     23.94% |         191      9.31%     33.25% |         251     12.24%     45.49% |         226     11.02%     56.51% |         287     13.99%     70.50% |         276     13.46%     83.96% |         329     16.04%    100.00% (Unspecified)
system.caches.L2Cache_Controller.MT_I.WB_Data::total         2051                       (Unspecified)
system.caches.L2Cache_Controller.MT_I.Ack_all |           2     10.53%     10.53% |           3     15.79%     26.32% |           2     10.53%     36.84% |           1      5.26%     42.11% |           4     21.05%     63.16% |           2     10.53%     73.68% |           3     15.79%     89.47% |           2     10.53%    100.00% (Unspecified)
system.caches.L2Cache_Controller.MT_I.Ack_all::total           19                       (Unspecified)
system.caches.L2Cache_Controller.MCT_I.WB_Data |        2929     12.59%     12.59% |        2811     12.08%     24.67% |        2426     10.43%     35.10% |        2993     12.86%     47.96% |        2710     11.65%     59.61% |        3542     15.22%     74.83% |        2761     11.87%     86.70% |        3094     13.30%    100.00% (Unspecified)
system.caches.L2Cache_Controller.MCT_I.WB_Data::total        23266                       (Unspecified)
system.caches.L2Cache_Controller.MCT_I.Ack_all |         928      9.99%      9.99% |        1601     17.24%     27.23% |        1258     13.55%     40.78% |        1136     12.23%     53.02% |        1387     14.94%     67.95% |         981     10.56%     78.52% |        1212     13.05%     91.57% |         783      8.43%    100.00% (Unspecified)
system.caches.L2Cache_Controller.MCT_I.Ack_all::total         9286                       (Unspecified)
system.caches.L2Cache_Controller.I_I.Ack |        4191     15.95%     15.95% |        3407     12.96%     28.91% |        3287     12.51%     41.41% |        2725     10.37%     51.78% |        3283     12.49%     64.27% |        3220     12.25%     76.52% |        2845     10.82%     87.35% |        3326     12.65%    100.00% (Unspecified)
system.caches.L2Cache_Controller.I_I.Ack::total        26284                       (Unspecified)
system.caches.L2Cache_Controller.I_I.Ack_all |        5067     15.72%     15.72% |        4305     13.36%     29.08% |        4020     12.47%     41.55% |        3440     10.67%     52.22% |        3869     12.00%     64.23% |        3817     11.84%     76.07% |        3353     10.40%     86.47% |        4360     13.53%    100.00% (Unspecified)
system.caches.L2Cache_Controller.I_I.Ack_all::total        32231                       (Unspecified)
system.caches.L2Cache_Controller.S_I.Ack |          16     11.85%     11.85% |          18     13.33%     25.19% |          17     12.59%     37.78% |          17     12.59%     50.37% |          18     13.33%     63.70% |          16     11.85%     75.56% |          17     12.59%     88.15% |          16     11.85%    100.00% (Unspecified)
system.caches.L2Cache_Controller.S_I.Ack::total          135                       (Unspecified)
system.caches.L2Cache_Controller.S_I.Ack_all |          16     11.85%     11.85% |          18     13.33%     25.19% |          17     12.59%     37.78% |          17     12.59%     50.37% |          18     13.33%     63.70% |          16     11.85%     75.56% |          17     12.59%     88.15% |          16     11.85%    100.00% (Unspecified)
system.caches.L2Cache_Controller.S_I.Ack_all::total          135                       (Unspecified)
system.caches.L2Cache_Controller.ISS.L1_GETS |         550     25.70%     25.70% |         264     12.34%     38.04% |         431     20.14%     58.18% |         158      7.38%     65.56% |         131      6.12%     71.68% |         196      9.16%     80.84% |          40      1.87%     82.71% |         370     17.29%    100.00% (Unspecified)
system.caches.L2Cache_Controller.ISS.L1_GETS::total         2140                       (Unspecified)
system.caches.L2Cache_Controller.ISS.Mem_Data |     1560326     12.50%     12.50% |     1560606     12.50%     25.00% |     1560251     12.50%     37.50% |     1560204     12.50%     50.00% |     1560252     12.50%     62.50% |     1560045     12.50%     75.00% |     1560079     12.50%     87.50% |     1559976     12.50%    100.00% (Unspecified)
system.caches.L2Cache_Controller.ISS.Mem_Data::total     12481739                       (Unspecified)
system.caches.L2Cache_Controller.IS.L1_GET_INSTR |        1192     13.18%     13.18% |        1380     15.26%     28.44% |        1066     11.79%     40.23% |        1035     11.45%     51.68% |        1201     13.28%     64.96% |        1178     13.03%     77.98% |         991     10.96%     88.94% |        1000     11.06%    100.00% (Unspecified)
system.caches.L2Cache_Controller.IS.L1_GET_INSTR::total         9043                       (Unspecified)
system.caches.L2Cache_Controller.IS.Mem_Data |        4183     14.96%     14.96% |        3832     13.71%     28.67% |        3435     12.29%     40.95% |        2908     10.40%     51.35% |        3382     12.10%     63.45% |        3385     12.11%     75.56% |        2963     10.60%     86.15% |        3871     13.85%    100.00% (Unspecified)
system.caches.L2Cache_Controller.IS.Mem_Data::total        27959                       (Unspecified)
system.caches.L2Cache_Controller.IM.L1_GETX |           0      0.00%      0.00% |           3     42.86%     42.86% |           0      0.00%     42.86% |           1     14.29%     57.14% |           1     14.29%     71.43% |           0      0.00%     71.43% |           1     14.29%     85.71% |           1     14.29%    100.00% (Unspecified)
system.caches.L2Cache_Controller.IM.L1_GETX::total            7                       (Unspecified)
system.caches.L2Cache_Controller.IM.Mem_Data |      530989     12.50%     12.50% |      530826     12.50%     25.00% |      530434     12.49%     37.49% |      530861     12.50%     49.99% |      530799     12.50%     62.49% |      531486     12.51%     75.00% |      530818     12.50%     87.50% |      530861     12.50%    100.00% (Unspecified)
system.caches.L2Cache_Controller.IM.Mem_Data::total      4247074                       (Unspecified)
system.caches.L2Cache_Controller.SS_MB.L1_GETS |           1      0.02%      0.02% |           0      0.00%      0.02% |           0      0.00%      0.02% |           0      0.00%      0.02% |           0      0.00%      0.02% |           0      0.00%      0.02% |        5124     99.98%    100.00% |           0      0.00%    100.00% (Unspecified)
system.caches.L2Cache_Controller.SS_MB.L1_GETS::total         5125                       (Unspecified)
system.caches.L2Cache_Controller.SS_MB.L1_UPGRADE |           2     66.67%     66.67% |           0      0.00%     66.67% |           0      0.00%     66.67% |           0      0.00%     66.67% |           0      0.00%     66.67% |           1     33.33%    100.00% |           0      0.00%    100.00% |           0      0.00%    100.00% (Unspecified)
system.caches.L2Cache_Controller.SS_MB.L1_UPGRADE::total            3                       (Unspecified)
system.caches.L2Cache_Controller.SS_MB.Exclusive_Unblock |        3575     25.54%     25.54% |        1675     11.97%     37.51% |           9      0.06%     37.58% |           5      0.04%     37.61% |          37      0.26%     37.88% |           4      0.03%     37.90% |        8650     61.80%     99.71% |          41      0.29%    100.00% (Unspecified)
system.caches.L2Cache_Controller.SS_MB.Exclusive_Unblock::total        13996                       (Unspecified)
system.caches.L2Cache_Controller.MT_MB.L1_GETS |           2     20.00%     20.00% |           3     30.00%     50.00% |           2     20.00%     70.00% |           3     30.00%    100.00% |           0      0.00%    100.00% |           0      0.00%    100.00% |           0      0.00%    100.00% |           0      0.00%    100.00% (Unspecified)
system.caches.L2Cache_Controller.MT_MB.L1_GETS::total           10                       (Unspecified)
system.caches.L2Cache_Controller.MT_MB.Exclusive_Unblock |     2110533     12.51%     12.51% |     2110178     12.51%     25.02% |     2106294     12.48%     37.50% |     2108262     12.50%     50.00% |     2109019     12.50%     62.50% |     2111004     12.51%     75.01% |     2108307     12.50%     87.51% |     2107605     12.49%    100.00% (Unspecified)
system.caches.L2Cache_Controller.MT_MB.Exclusive_Unblock::total     16871202                       (Unspecified)
system.caches.L2Cache_Controller.MT_IIB.WB_Data |        3588     25.61%     25.61% |        1583     11.30%     36.91% |          22      0.16%     37.07% |          21      0.15%     37.22% |          55      0.39%     37.61% |          18      0.13%     37.74% |        8668     61.87%     99.61% |          55      0.39%    100.00% (Unspecified)
system.caches.L2Cache_Controller.MT_IIB.WB_Data::total        14010                       (Unspecified)
system.caches.L2Cache_Controller.MT_IIB.WB_Data_clean |         937     19.91%     19.91% |         624     13.26%     33.17% |         632     13.43%     46.60% |         563     11.96%     58.56% |         523     11.11%     69.68% |         471     10.01%     79.69% |         422      8.97%     88.65% |         534     11.35%    100.00% (Unspecified)
system.caches.L2Cache_Controller.MT_IIB.WB_Data_clean::total         4706                       (Unspecified)
system.caches.L2Cache_Controller.MT_SB.L1_UPGRADE |           1      0.02%      0.02% |           1      0.02%      0.05% |           0      0.00%      0.05% |           0      0.00%      0.05% |           0      0.00%      0.05% |           0      0.00%      0.05% |        4323     99.95%    100.00% |           0      0.00%    100.00% (Unspecified)
system.caches.L2Cache_Controller.MT_SB.L1_UPGRADE::total         4325                       (Unspecified)
system.caches.L2Cache_Controller.MT_SB.Unblock |        4525     24.18%     24.18% |        2207     11.79%     35.97% |         654      3.49%     39.46% |         584      3.12%     42.58% |         578      3.09%     45.67% |         489      2.61%     48.28% |        9090     48.57%     96.85% |         589      3.15%    100.00% (Unspecified)
system.caches.L2Cache_Controller.MT_SB.Unblock::total        18716                       (Unspecified)
system.caches.RequestType.LD.latency_hist_seqr::bucket_size          512                       (Unspecified)
system.caches.RequestType.LD.latency_hist_seqr::max_bucket         5119                       (Unspecified)
system.caches.RequestType.LD.latency_hist_seqr::samples    423080639                       (Unspecified)
system.caches.RequestType.LD.latency_hist_seqr::mean    16.672174                       (Unspecified)
system.caches.RequestType.LD.latency_hist_seqr::gmean     1.202502                       (Unspecified)
system.caches.RequestType.LD.latency_hist_seqr::stdev    97.768958                       (Unspecified)
system.caches.RequestType.LD.latency_hist_seqr |   419522245     99.16%     99.16% |     3158283      0.75%     99.91% |       89434      0.02%     99.93% |      299396      0.07%    100.00% |       11018      0.00%    100.00% |         255      0.00%    100.00% |           8      0.00%    100.00% |           0      0.00%    100.00% |           0      0.00%    100.00% |           0      0.00%    100.00% (Unspecified)
system.caches.RequestType.LD.latency_hist_seqr::total    423080639                       (Unspecified)
system.caches.RequestType.LD.hit_latency_hist_seqr::bucket_size            1                       (Unspecified)
system.caches.RequestType.LD.hit_latency_hist_seqr::max_bucket            9                       (Unspecified)
system.caches.RequestType.LD.hit_latency_hist_seqr::samples    410522280                       (Unspecified)
system.caches.RequestType.LD.hit_latency_hist_seqr::mean            1                       (Unspecified)
system.caches.RequestType.LD.hit_latency_hist_seqr::gmean            1                       (Unspecified)
system.caches.RequestType.LD.hit_latency_hist_seqr |           0      0.00%      0.00% |   410522280    100.00%    100.00% |           0      0.00%    100.00% |           0      0.00%    100.00% |           0      0.00%    100.00% |           0      0.00%    100.00% |           0      0.00%    100.00% |           0      0.00%    100.00% |           0      0.00%    100.00% |           0      0.00%    100.00% (Unspecified)
system.caches.RequestType.LD.hit_latency_hist_seqr::total    410522280                       (Unspecified)
system.caches.RequestType.LD.miss_latency_hist_seqr::bucket_size          512                       (Unspecified)
[...]
system.timingCpu0.exec_context.thread_0.statExecutedInstType::SimdSha1Hash2            0      0.00%     77.27% # Class of executed instruction. (Count)
system.timingCpu0.exec_context.thread_0.statExecutedInstType::SimdSha256Hash            0      0.00%     77.27% # Class of executed instruction. (Count)
system.timingCpu0.exec_context.thread_0.statExecutedInstType::SimdSha256Hash2            0      0.00%     77.27% # Class of executed instruction. (Count)
system.timingCpu0.exec_context.thread_0.statExecutedInstType::SimdShaSigma2            0      0.00%     77.27% # Class of executed instruction. (Count)
system.timingCpu0.exec_context.thread_0.statExecutedInstType::SimdShaSigma3            0      0.00%     77.27% # Class of executed instruction. (Count)
system.timingCpu0.exec_context.thread_0.statExecutedInstType::SimdPredAlu            0      0.00%     77.27% # Class of executed instruction. (Count)
system.timingCpu0.exec_context.thread_0.statExecutedInstType::MemRead    201170974     13.62%     90.89% # Class of executed instruction. (Count)
system.timingCpu0.exec_context.thread_0.statExecutedInstType::MemWrite    134505028      9.11%    100.00% # Class of executed instruction. (Count)
system.timingCpu0.exec_context.thread_0.statExecutedInstType::FloatMemRead            0      0.00%    100.00% # Class of executed instruction. (Count)
system.timingCpu0.exec_context.thread_0.statExecutedInstType::FloatMemWrite          128      0.00%    100.00% # Class of executed instruction. (Count)
system.timingCpu0.exec_context.thread_0.statExecutedInstType::IprAccess            0      0.00%    100.00% # Class of executed instruction. (Count)
system.timingCpu0.exec_context.thread_0.statExecutedInstType::InstPrefetch            0      0.00%    100.00% # Class of executed instruction. (Count)
system.timingCpu0.exec_context.thread_0.statExecutedInstType::total   1476786781                       # Class of executed instruction. (Count)
system.timingCpu0.mmu.dtb.rdAccesses        201224676                       # TLB accesses on read requests (Count)
system.timingCpu0.mmu.dtb.wrAccesses        159900969                       # TLB accesses on write requests (Count)
system.timingCpu0.mmu.dtb.rdMisses              53702                       # TLB misses on read requests (Count)
system.timingCpu0.mmu.dtb.wrMisses           25395817                       # TLB misses on write requests (Count)
system.timingCpu0.mmu.dtb.walker.power_state.pwrStateResidencyTicks::UNDEFINED 26821297602750                       # Cumulative time (in ticks) in various power states (Tick)
system.timingCpu0.mmu.itb.rdAccesses                0                       # TLB accesses on read requests (Count)
system.timingCpu0.mmu.itb.wrAccesses       1205137291                       # TLB accesses on write requests (Count)
system.timingCpu0.mmu.itb.rdMisses                  0                       # TLB misses on read requests (Count)
system.timingCpu0.mmu.itb.wrMisses               2012                       # TLB misses on write requests (Count)
system.timingCpu0.mmu.itb.walker.power_state.pwrStateResidencyTicks::UNDEFINED 26821297602750                       # Cumulative time (in ticks) in various power states (Tick)
system.timingCpu0.power_state.numTransitions            4                       # Number of power state transitions (Count)
system.timingCpu0.power_state.ticksClkGated::samples            2                       # Distribution of time spent in the clock gated state (Tick)
system.timingCpu0.power_state.ticksClkGated::mean    668379125                       # Distribution of time spent in the clock gated state (Tick)
system.timingCpu0.power_state.ticksClkGated::stdev 227729926.065463                       # Distribution of time spent in the clock gated state (Tick)
system.timingCpu0.power_state.ticksClkGated::1000-5e+10            2    100.00%    100.00% # Distribution of time spent in the clock gated state (Tick)
system.timingCpu0.power_state.ticksClkGated::min_value    507349750                       # Distribution of time spent in the clock gated state (Tick)
system.timingCpu0.power_state.ticksClkGated::max_value    829408500                       # Distribution of time spent in the clock gated state (Tick)
system.timingCpu0.power_state.ticksClkGated::total            2                       # Distribution of time spent in the clock gated state (Tick)
system.timingCpu0.power_state.pwrStateResidencyTicks::ON 1012468194250                       # Cumulative time (in ticks) in various power states (Tick)
system.timingCpu0.power_state.pwrStateResidencyTicks::CLK_GATED   1336758250                       # Cumulative time (in ticks) in various power states (Tick)
system.timingCpu0.power_state.pwrStateResidencyTicks::OFF 25807492650250                       # Cumulative time (in ticks) in various power states (Tick)
system.timingCpu0.thread_0.numInsts                 0                       # Number of Instructions committed (Count)
system.timingCpu0.thread_0.numOps                   0                       # Number of Ops committed (Count)
system.timingCpu0.thread_0.numMemRefs               0                       # Number of Memory References (Count)
system.timingCpu1.numCycles                7999999461                       # Number of cpu cycles simulated (Cycle)
system.timingCpu1.numWorkItemsStarted               0                       # Number of work items this cpu started (Count)
system.timingCpu1.numWorkItemsCompleted             0                       # Number of work items this cpu completed (Count)
system.timingCpu1.exec_context.thread_0.numInsts    937761037                       # Number of instructions committed (Count)
system.timingCpu1.exec_context.thread_0.numOps   1473892305                       # Number of ops (including micro ops) committed (Count)
system.timingCpu1.exec_context.thread_0.numIntAluAccesses   1473604365                       # Number of integer alu accesses (Count)
system.timingCpu1.exec_context.thread_0.numFpAluAccesses          192                       # Number of float alu accesses (Count)
system.timingCpu1.exec_context.thread_0.numVecAluAccesses            0                       # Number of vector alu accesses (Count)
system.timingCpu1.exec_context.thread_0.numCallsReturns       311688                       # Number of times a function call or return occured (Count)
system.timingCpu1.exec_context.thread_0.numCondCtrlInsts    100354326                       # Number of instructions that are conditional controls (Count)
system.timingCpu1.exec_context.thread_0.numIntInsts   1473604365                       # Number of integer instructions (Count)
system.timingCpu1.exec_context.thread_0.numFpInsts          192                       # Number of float instructions (Count)
system.timingCpu1.exec_context.thread_0.numVecInsts            0                       # Number of vector instructions (Count)
system.timingCpu1.exec_context.thread_0.numIntRegReads   2543386338                       # Number of times the integer registers were read (Count)
system.timingCpu1.exec_context.thread_0.numIntRegWrites   1138322994                       # Number of times the integer registers were written (Count)
system.timingCpu1.exec_context.thread_0.numFpRegReads          192                       # Number of times the floating registers were read (Count)
system.timingCpu1.exec_context.thread_0.numFpRegWrites            0                       # Number of times the floating registers were written (Count)
system.timingCpu1.exec_context.thread_0.numVecRegReads            0                       # Number of times the vector registers were read (Count)
system.timingCpu1.exec_context.thread_0.numVecRegWrites            0                       # Number of times the vector registers were written (Count)
system.timingCpu1.exec_context.thread_0.numVecPredRegReads            0                       # Number of times the predicate registers were read (Count)
system.timingCpu1.exec_context.thread_0.numVecPredRegWrites            0                       # Number of times the predicate registers were written (Count)
system.timingCpu1.exec_context.thread_0.numCCRegReads    603172608                       # Number of times the CC registers were read (Count)
system.timingCpu1.exec_context.thread_0.numCCRegWrites    732967224                       # Number of times the CC registers were written (Count)
system.timingCpu1.exec_context.thread_0.numMiscRegReads    536942320                       # Number of times the Misc registers were read (Count)
system.timingCpu1.exec_context.thread_0.numMiscRegWrites        68823                       # Number of times the Misc registers were written (Count)
system.timingCpu1.exec_context.thread_0.numMemRefs    335222971                       # Number of memory refs (Count)
system.timingCpu1.exec_context.thread_0.numLoadInsts    200910337                       # Number of load instructions (Count)
system.timingCpu1.exec_context.thread_0.numStoreInsts    134312634                       # Number of store instructions (Count)
system.timingCpu1.exec_context.thread_0.numIdleCycles            0                       # Number of idle cycles (Cycle)
system.timingCpu1.exec_context.thread_0.numBusyCycles   7999999461                       # Number of busy cycles (Cycle)
system.timingCpu1.exec_context.thread_0.notIdleFraction            1                       # Percentage of non-idle cycles (Ratio)
system.timingCpu1.exec_context.thread_0.idleFraction            0                       # Percentage of idle cycles (Ratio)
system.timingCpu1.exec_context.thread_0.numBranches    100826585                       # Number of branches fetched (Count)
system.timingCpu1.exec_context.thread_0.statExecutedInstType::No_OpClass        12117      0.00%      0.00% # Class of executed instruction. (Count)
system.timingCpu1.exec_context.thread_0.statExecutedInstType::IntAlu   1138522297     77.25%     77.25% # Class of executed instruction. (Count)
system.timingCpu1.exec_context.thread_0.statExecutedInstType::IntMult        47349      0.00%     77.25% # Class of executed instruction. (Count)
system.timingCpu1.exec_context.thread_0.statExecutedInstType::IntDiv        87507      0.01%     77.26% # Class of executed instruction. (Count)
system.timingCpu1.exec_context.thread_0.statExecutedInstType::FloatAdd            0      0.00%     77.26% # Class of executed instruction. (Count)
system.timingCpu1.exec_context.thread_0.statExecutedInstType::FloatCmp            0      0.00%     77.26% # Class of executed instruction. (Count)
system.timingCpu1.exec_context.thread_0.statExecutedInstType::FloatCvt           64      0.00%     77.26% # Class of executed instruction. (Count)
system.timingCpu1.exec_context.thread_0.statExecutedInstType::FloatMult            0      0.00%     77.26% # Class of executed instruction. (Count)
system.timingCpu1.exec_context.thread_0.statExecutedInstType::FloatMultAcc            0      0.00%     77.26% # Class of executed instruction. (Count)
system.timingCpu1.exec_context.thread_0.statExecutedInstType::FloatDiv            0      0.00%     77.26% # Class of executed instruction. (Count)
system.timingCpu1.exec_context.thread_0.statExecutedInstType::FloatMisc            0      0.00%     77.26% # Class of executed instruction. (Count)
system.timingCpu1.exec_context.thread_0.statExecutedInstType::FloatSqrt            0      0.00%     77.26% # Class of executed instruction. (Count)
system.timingCpu1.exec_context.thread_0.statExecutedInstType::SimdAdd            0      0.00%     77.26% # Class of executed instruction. (Count)
system.timingCpu1.exec_context.thread_0.statExecutedInstType::SimdAddAcc            0      0.00%     77.26% # Class of executed instruction. (Count)
system.timingCpu1.exec_context.thread_0.statExecutedInstType::SimdAlu            0      0.00%     77.26% # Class of executed instruction. (Count)
system.timingCpu1.exec_context.thread_0.statExecutedInstType::SimdCmp            0      0.00%     77.26% # Class of executed instruction. (Count)
system.timingCpu1.exec_context.thread_0.statExecutedInstType::SimdCvt            0      0.00%     77.26% # Class of executed instruction. (Count)
system.timingCpu1.exec_context.thread_0.statExecutedInstType::SimdMisc            0      0.00%     77.26% # Class of executed instruction. (Count)
system.timingCpu1.exec_context.thread_0.statExecutedInstType::SimdMult            0      0.00%     77.26% # Class of executed instruction. (Count)
system.timingCpu1.exec_context.thread_0.statExecutedInstType::SimdMultAcc            0      0.00%     77.26% # Class of executed instruction. (Count)
system.timingCpu1.exec_context.thread_0.statExecutedInstType::SimdShift            0      0.00%     77.26% # Class of executed instruction. (Count)
system.timingCpu1.exec_context.thread_0.statExecutedInstType::SimdShiftAcc            0      0.00%     77.26% # Class of executed instruction. (Count)
system.timingCpu1.exec_context.thread_0.statExecutedInstType::SimdDiv            0      0.00%     77.26% # Class of executed instruction. (Count)
system.timingCpu1.exec_context.thread_0.statExecutedInstType::SimdSqrt            0      0.00%     77.26% # Class of executed instruction. (Count)
system.timingCpu1.exec_context.thread_0.statExecutedInstType::SimdFloatAdd            0      0.00%     77.26% # Class of executed instruction. (Count)
system.timingCpu1.exec_context.thread_0.statExecutedInstType::SimdFloatAlu            0      0.00%     77.26% # Class of executed instruction. (Count)
system.timingCpu1.exec_context.thread_0.statExecutedInstType::SimdFloatCmp            0      0.00%     77.26% # Class of executed instruction. (Count)
system.timingCpu1.exec_context.thread_0.statExecutedInstType::SimdFloatCvt            0      0.00%     77.26% # Class of executed instruction. (Count)
system.timingCpu1.exec_context.thread_0.statExecutedInstType::SimdFloatDiv            0      0.00%     77.26% # Class of executed instruction. (Count)
system.timingCpu1.exec_context.thread_0.statExecutedInstType::SimdFloatMisc            0      0.00%     77.26% # Class of executed instruction. (Count)
system.timingCpu1.exec_context.thread_0.statExecutedInstType::SimdFloatMult            0      0.00%     77.26% # Class of executed instruction. (Count)
system.timingCpu1.exec_context.thread_0.statExecutedInstType::SimdFloatMultAcc            0      0.00%     77.26% # Class of executed instruction. (Count)
system.timingCpu1.exec_context.thread_0.statExecutedInstType::SimdFloatSqrt            0      0.00%     77.26% # Class of executed instruction. (Count)
system.timingCpu1.exec_context.thread_0.statExecutedInstType::SimdReduceAdd            0      0.00%     77.26% # Class of executed instruction. (Count)
system.timingCpu1.exec_context.thread_0.statExecutedInstType::SimdReduceAlu            0      0.00%     77.26% # Class of executed instruction. (Count)
system.timingCpu1.exec_context.thread_0.statExecutedInstType::SimdReduceCmp            0      0.00%     77.26% # Class of executed instruction. (Count)
system.timingCpu1.exec_context.thread_0.statExecutedInstType::SimdFloatReduceAdd            0      0.00%     77.26% # Class of executed instruction. (Count)
system.timingCpu1.exec_context.thread_0.statExecutedInstType::SimdFloatReduceCmp            0      0.00%     77.26% # Class of executed instruction. (Count)
system.timingCpu1.exec_context.thread_0.statExecutedInstType::SimdAes            0      0.00%     77.26% # Class of executed instruction. (Count)
system.timingCpu1.exec_context.thread_0.statExecutedInstType::SimdAesMix            0      0.00%     77.26% # Class of executed instruction. (Count)
system.timingCpu1.exec_context.thread_0.statExecutedInstType::SimdSha1Hash            0      0.00%     77.26% # Class of executed instruction. (Count)
system.timingCpu1.exec_context.thread_0.statExecutedInstType::SimdSha1Hash2            0      0.00%     77.26% # Class of executed instruction. (Count)
system.timingCpu1.exec_context.thread_0.statExecutedInstType::SimdSha256Hash            0      0.00%     77.26% # Class of executed instruction. (Count)
system.timingCpu1.exec_context.thread_0.statExecutedInstType::SimdSha256Hash2            0      0.00%     77.26% # Class of executed instruction. (Count)
system.timingCpu1.exec_context.thread_0.statExecutedInstType::SimdShaSigma2            0      0.00%     77.26% # Class of executed instruction. (Count)
system.timingCpu1.exec_context.thread_0.statExecutedInstType::SimdShaSigma3            0      0.00%     77.26% # Class of executed instruction. (Count)
system.timingCpu1.exec_context.thread_0.statExecutedInstType::SimdPredAlu            0      0.00%     77.26% # Class of executed instruction. (Count)
system.timingCpu1.exec_context.thread_0.statExecutedInstType::MemRead    200910337     13.63%     90.89% # Class of executed instruction. (Count)
system.timingCpu1.exec_context.thread_0.statExecutedInstType::MemWrite    134312506      9.11%    100.00% # Class of executed instruction. (Count)
system.timingCpu1.exec_context.thread_0.statExecutedInstType::FloatMemRead            0      0.00%    100.00% # Class of executed instruction. (Count)
system.timingCpu1.exec_context.thread_0.statExecutedInstType::FloatMemWrite          128      0.00%    100.00% # Class of executed instruction. (Count)
system.timingCpu1.exec_context.thread_0.statExecutedInstType::IprAccess            0      0.00%    100.00% # Class of executed instruction. (Count)
system.timingCpu1.exec_context.thread_0.statExecutedInstType::InstPrefetch            0      0.00%    100.00% # Class of executed instruction. (Count)
system.timingCpu1.exec_context.thread_0.statExecutedInstType::total   1473892305                       # Class of executed instruction. (Count)
system.timingCpu1.mmu.dtb.rdAccesses        200995491                       # TLB accesses on read requests (Count)
system.timingCpu1.mmu.dtb.wrAccesses        159698516                       # TLB accesses on write requests (Count)
system.timingCpu1.mmu.dtb.rdMisses              85423                       # TLB misses on read requests (Count)
system.timingCpu1.mmu.dtb.wrMisses           25385984                       # TLB misses on write requests (Count)
system.timingCpu1.mmu.dtb.walker.power_state.pwrStateResidencyTicks::UNDEFINED 26821297602750                       # Cumulative time (in ticks) in various power states (Tick)
system.timingCpu1.mmu.itb.rdAccesses                0                       # TLB accesses on read requests (Count)
system.timingCpu1.mmu.itb.wrAccesses       1204439661                       # TLB accesses on write requests (Count)
system.timingCpu1.mmu.itb.rdMisses                  0                       # TLB misses on read requests (Count)
system.timingCpu1.mmu.itb.wrMisses               2014                       # TLB misses on write requests (Count)
system.timingCpu1.mmu.itb.walker.power_state.pwrStateResidencyTicks::UNDEFINED 26821297602750                       # Cumulative time (in ticks) in various power states (Tick)
system.timingCpu1.power_state.pwrStateResidencyTicks::OFF 26821297602750                       # Cumulative time (in ticks) in various power states (Tick)
system.timingCpu1.thread_0.numInsts                 0                       # Number of Instructions committed (Count)
system.timingCpu1.thread_0.numOps                   0                       # Number of Ops committed (Count)
system.timingCpu1.thread_0.numMemRefs               0                       # Number of Memory References (Count)
system.workload.inst.arm                            0                       # number of arm instructions executed (Count)
system.workload.inst.quiesce                        0                       # number of quiesce instructions executed (Count)

---------- End Simulation Statistics   ----------
