
---------- Begin Simulation Statistics ----------
simSeconds                                   2.005676                       # Number of seconds simulated (Second)
simTicks                                 2005676314751                       # Number of ticks simulated (Tick)
finalTick                                161956989371251                       # Number of ticks from beginning of simulation (restored from checkpoints and never reset) (Tick)
simFreq                                  1000000000000                       # The number of ticks per simulated second ((Tick/Second))
hostSeconds                                  10848.68                       # Real time elapsed on the host (Second)
hostTickRate                                184877525                       # The number of ticks simulated per host second (ticks/s) ((Tick/Second))
hostMemory                                    7921416                       # Number of bytes of host memory used (Byte)
simInsts                                  39816572235                       # Number of instructions simulated (Count)
simOps                                    41247577242                       # Number of ops (including micro ops) simulated (Count)
hostInstRate                                  3670178                       # Simulator instruction rate (inst/s) ((Count/Second))
hostOpRate                                    3802084                       # Simulator op (including micro ops) rate (op/s) ((Count/Second))
system.work_item_type0::samples                     1                       # Run time stat forwork_item_type0 (Unspecified)
system.work_item_type0::mean             2005676314751                       # Run time stat forwork_item_type0 (Unspecified)
system.work_item_type0::gmean            2005676314750.998535                       # Run time stat forwork_item_type0 (Unspecified)
system.work_item_type0::stdev                     nan                       # Run time stat forwork_item_type0 (Unspecified)
system.work_item_type0::0-1.37439e+11               0      0.00%      0.00% # Run time stat forwork_item_type0 (Unspecified)
system.work_item_type0::1.37439e+11-2.74878e+11            0      0.00%      0.00% # Run time stat forwork_item_type0 (Unspecified)
system.work_item_type0::2.74878e+11-4.12317e+11            0      0.00%      0.00% # Run time stat forwork_item_type0 (Unspecified)
system.work_item_type0::4.12317e+11-5.49756e+11            0      0.00%      0.00% # Run time stat forwork_item_type0 (Unspecified)
system.work_item_type0::5.49756e+11-6.87195e+11            0      0.00%      0.00% # Run time stat forwork_item_type0 (Unspecified)
system.work_item_type0::6.87195e+11-8.24634e+11            0      0.00%      0.00% # Run time stat forwork_item_type0 (Unspecified)
system.work_item_type0::8.24634e+11-9.62073e+11            0      0.00%      0.00% # Run time stat forwork_item_type0 (Unspecified)
system.work_item_type0::9.62073e+11-1.09951e+12            0      0.00%      0.00% # Run time stat forwork_item_type0 (Unspecified)
system.work_item_type0::1.09951e+12-1.23695e+12            0      0.00%      0.00% # Run time stat forwork_item_type0 (Unspecified)
system.work_item_type0::1.23695e+12-1.37439e+12            0      0.00%      0.00% # Run time stat forwork_item_type0 (Unspecified)
system.work_item_type0::1.37439e+12-1.51183e+12            0      0.00%      0.00% # Run time stat forwork_item_type0 (Unspecified)
system.work_item_type0::1.51183e+12-1.64927e+12            0      0.00%      0.00% # Run time stat forwork_item_type0 (Unspecified)
system.work_item_type0::1.64927e+12-1.78671e+12            0      0.00%      0.00% # Run time stat forwork_item_type0 (Unspecified)
system.work_item_type0::1.78671e+12-1.92415e+12            0      0.00%      0.00% # Run time stat forwork_item_type0 (Unspecified)
system.work_item_type0::1.92415e+12-2.06158e+12            1    100.00%    100.00% # Run time stat forwork_item_type0 (Unspecified)
system.work_item_type0::2.06158e+12-2.19902e+12            0      0.00%    100.00% # Run time stat forwork_item_type0 (Unspecified)
system.work_item_type0::2.19902e+12-2.33646e+12            0      0.00%    100.00% # Run time stat forwork_item_type0 (Unspecified)
system.work_item_type0::2.33646e+12-2.4739e+12            0      0.00%    100.00% # Run time stat forwork_item_type0 (Unspecified)
system.work_item_type0::2.4739e+12-2.61134e+12            0      0.00%    100.00% # Run time stat forwork_item_type0 (Unspecified)
system.work_item_type0::2.61134e+12-2.74878e+12            0      0.00%    100.00% # Run time stat forwork_item_type0 (Unspecified)
system.work_item_type0::total                       1                       # Run time stat forwork_item_type0 (Unspecified)
system.atomicCpu0.numCycles                         0                       # Number of cpu cycles simulated (Cycle)
system.atomicCpu0.numWorkItemsStarted               0                       # Number of work items this cpu started (Count)
system.atomicCpu0.numWorkItemsCompleted             0                       # Number of work items this cpu completed (Count)
system.atomicCpu0.exec_context.thread_0.numInsts            0                       # Number of instructions committed (Count)
system.atomicCpu0.exec_context.thread_0.numOps            0                       # Number of ops (including micro ops) committed (Count)
system.atomicCpu0.exec_context.thread_0.numIntAluAccesses            0                       # Number of integer alu accesses (Count)
system.atomicCpu0.exec_context.thread_0.numFpAluAccesses            0                       # Number of float alu accesses (Count)
system.atomicCpu0.exec_context.thread_0.numVecAluAccesses            0                       # Number of vector alu accesses (Count)
system.atomicCpu0.exec_context.thread_0.numCallsReturns            0                       # Number of times a function call or return occured (Count)
system.atomicCpu0.exec_context.thread_0.numCondCtrlInsts            0                       # Number of instructions that are conditional controls (Count)
system.atomicCpu0.exec_context.thread_0.numIntInsts            0                       # Number of integer instructions (Count)
system.atomicCpu0.exec_context.thread_0.numFpInsts            0                       # Number of float instructions (Count)
system.atomicCpu0.exec_context.thread_0.numVecInsts            0                       # Number of vector instructions (Count)
system.atomicCpu0.exec_context.thread_0.numIntRegReads            0                       # Number of times the integer registers were read (Count)
system.atomicCpu0.exec_context.thread_0.numIntRegWrites            0                       # Number of times the integer registers were written (Count)
system.atomicCpu0.exec_context.thread_0.numFpRegReads            0                       # Number of times the floating registers were read (Count)
system.atomicCpu0.exec_context.thread_0.numFpRegWrites            0                       # Number of times the floating registers were written (Count)
system.atomicCpu0.exec_context.thread_0.numVecRegReads            0                       # Number of times the vector registers were read (Count)
system.atomicCpu0.exec_context.thread_0.numVecRegWrites            0                       # Number of times the vector registers were written (Count)
system.atomicCpu0.exec_context.thread_0.numVecPredRegReads            0                       # Number of times the predicate registers were read (Count)
system.atomicCpu0.exec_context.thread_0.numVecPredRegWrites            0                       # Number of times the predicate registers were written (Count)
system.atomicCpu0.exec_context.thread_0.numMiscRegReads            0                       # Number of times the Misc registers were read (Count)
system.atomicCpu0.exec_context.thread_0.numMiscRegWrites            0                       # Number of times the Misc registers were written (Count)
system.atomicCpu0.exec_context.thread_0.numMemRefs            0                       # Number of memory refs (Count)
system.atomicCpu0.exec_context.thread_0.numLoadInsts            0                       # Number of load instructions (Count)
system.atomicCpu0.exec_context.thread_0.numStoreInsts            0                       # Number of store instructions (Count)
system.atomicCpu0.exec_context.thread_0.numIdleCycles            0                       # Number of idle cycles (Cycle)
system.atomicCpu0.exec_context.thread_0.numBusyCycles            0                       # Number of busy cycles (Cycle)
system.atomicCpu0.exec_context.thread_0.notIdleFraction            0                       # Percentage of non-idle cycles (Ratio)
system.atomicCpu0.exec_context.thread_0.idleFraction            1                       # Percentage of idle cycles (Ratio)
system.atomicCpu0.exec_context.thread_0.statExecutedInstType::No_OpClass            0                       # Class of executed instruction. (Count)
system.atomicCpu0.exec_context.thread_0.statExecutedInstType::IntAlu            0                       # Class of executed instruction. (Count)
system.atomicCpu0.exec_context.thread_0.statExecutedInstType::IntMult            0                       # Class of executed instruction. (Count)
system.atomicCpu0.exec_context.thread_0.statExecutedInstType::IntDiv            0                       # Class of executed instruction. (Count)
system.atomicCpu0.exec_context.thread_0.statExecutedInstType::FloatAdd            0                       # Class of executed instruction. (Count)
system.atomicCpu0.exec_context.thread_0.statExecutedInstType::FloatCmp            0                       # Class of executed instruction. (Count)
system.atomicCpu0.exec_context.thread_0.statExecutedInstType::FloatCvt            0                       # Class of executed instruction. (Count)
system.atomicCpu0.exec_context.thread_0.statExecutedInstType::FloatMult            0                       # Class of executed instruction. (Count)
system.atomicCpu0.exec_context.thread_0.statExecutedInstType::FloatMultAcc            0                       # Class of executed instruction. (Count)
system.atomicCpu0.exec_context.thread_0.statExecutedInstType::FloatDiv            0                       # Class of executed instruction. (Count)
system.atomicCpu0.exec_context.thread_0.statExecutedInstType::FloatMisc            0                       # Class of executed instruction. (Count)
system.atomicCpu0.exec_context.thread_0.statExecutedInstType::FloatSqrt            0                       # Class of executed instruction. (Count)
system.atomicCpu0.exec_context.thread_0.statExecutedInstType::SimdAdd            0                       # Class of executed instruction. (Count)
system.atomicCpu0.exec_context.thread_0.statExecutedInstType::SimdAddAcc            0                       # Class of executed instruction. (Count)
system.atomicCpu0.exec_context.thread_0.statExecutedInstType::SimdAlu            0                       # Class of executed instruction. (Count)
system.atomicCpu0.exec_context.thread_0.statExecutedInstType::SimdCmp            0                       # Class of executed instruction. (Count)
system.atomicCpu0.exec_context.thread_0.statExecutedInstType::SimdCvt            0                       # Class of executed instruction. (Count)
system.atomicCpu0.exec_context.thread_0.statExecutedInstType::SimdMisc            0                       # Class of executed instruction. (Count)
system.atomicCpu0.exec_context.thread_0.statExecutedInstType::SimdMult            0                       # Class of executed instruction. (Count)
system.atomicCpu0.exec_context.thread_0.statExecutedInstType::SimdMultAcc            0                       # Class of executed instruction. (Count)
system.atomicCpu0.exec_context.thread_0.statExecutedInstType::SimdShift            0                       # Class of executed instruction. (Count)
system.atomicCpu0.exec_context.thread_0.statExecutedInstType::SimdShiftAcc            0                       # Class of executed instruction. (Count)
system.atomicCpu0.exec_context.thread_0.statExecutedInstType::SimdDiv            0                       # Class of executed instruction. (Count)
system.atomicCpu0.exec_context.thread_0.statExecutedInstType::SimdSqrt            0                       # Class of executed instruction. (Count)
system.atomicCpu0.exec_context.thread_0.statExecutedInstType::SimdFloatAdd            0                       # Class of executed instruction. (Count)
system.atomicCpu0.exec_context.thread_0.statExecutedInstType::SimdFloatAlu            0                       # Class of executed instruction. (Count)
system.atomicCpu0.exec_context.thread_0.statExecutedInstType::SimdFloatCmp            0                       # Class of executed instruction. (Count)
system.atomicCpu0.exec_context.thread_0.statExecutedInstType::SimdFloatCvt            0                       # Class of executed instruction. (Count)
system.atomicCpu0.exec_context.thread_0.statExecutedInstType::SimdFloatDiv            0                       # Class of executed instruction. (Count)
system.atomicCpu0.exec_context.thread_0.statExecutedInstType::SimdFloatMisc            0                       # Class of executed instruction. (Count)
system.atomicCpu0.exec_context.thread_0.statExecutedInstType::SimdFloatMult            0                       # Class of executed instruction. (Count)
system.atomicCpu0.exec_context.thread_0.statExecutedInstType::SimdFloatMultAcc            0                       # Class of executed instruction. (Count)
system.atomicCpu0.exec_context.thread_0.statExecutedInstType::SimdFloatSqrt            0                       # Class of executed instruction. (Count)
system.atomicCpu0.exec_context.thread_0.statExecutedInstType::SimdReduceAdd            0                       # Class of executed instruction. (Count)
system.atomicCpu0.exec_context.thread_0.statExecutedInstType::SimdReduceAlu            0                       # Class of executed instruction. (Count)
system.atomicCpu0.exec_context.thread_0.statExecutedInstType::SimdReduceCmp            0                       # Class of executed instruction. (Count)
system.atomicCpu0.exec_context.thread_0.statExecutedInstType::SimdFloatReduceAdd            0                       # Class of executed instruction. (Count)
system.atomicCpu0.exec_context.thread_0.statExecutedInstType::SimdFloatReduceCmp            0                       # Class of executed instruction. (Count)
system.atomicCpu0.exec_context.thread_0.statExecutedInstType::SimdAes            0                       # Class of executed instruction. (Count)
system.atomicCpu0.exec_context.thread_0.statExecutedInstType::SimdAesMix            0                       # Class of executed instruction. (Count)
system.atomicCpu0.exec_context.thread_0.statExecutedInstType::SimdSha1Hash            0                       # Class of executed instruction. (Count)
system.atomicCpu0.exec_context.thread_0.statExecutedInstType::SimdSha1Hash2            0                       # Class of executed instruction. (Count)
system.atomicCpu0.exec_context.thread_0.statExecutedInstType::SimdSha256Hash            0                       # Class of executed instruction. (Count)
system.atomicCpu0.exec_context.thread_0.statExecutedInstType::SimdSha256Hash2            0                       # Class of executed instruction. (Count)
system.atomicCpu0.exec_context.thread_0.statExecutedInstType::SimdShaSigma2            0                       # Class of executed instruction. (Count)
system.atomicCpu0.exec_context.thread_0.statExecutedInstType::SimdShaSigma3            0                       # Class of executed instruction. (Count)
system.atomicCpu0.exec_context.thread_0.statExecutedInstType::SimdPredAlu            0                       # Class of executed instruction. (Count)
system.atomicCpu0.exec_context.thread_0.statExecutedInstType::MemRead            0                       # Class of executed instruction. (Count)
system.atomicCpu0.exec_context.thread_0.statExecutedInstType::MemWrite            0                       # Class of executed instruction. (Count)
system.atomicCpu0.exec_context.thread_0.statExecutedInstType::FloatMemRead            0                       # Class of executed instruction. (Count)
system.atomicCpu0.exec_context.thread_0.statExecutedInstType::FloatMemWrite            0                       # Class of executed instruction. (Count)
system.atomicCpu0.exec_context.thread_0.statExecutedInstType::IprAccess            0                       # Class of executed instruction. (Count)
system.atomicCpu0.exec_context.thread_0.statExecutedInstType::InstPrefetch            0                       # Class of executed instruction. (Count)
system.atomicCpu0.exec_context.thread_0.statExecutedInstType::total            0                       # Class of executed instruction. (Count)
system.atomicCpu0.mmu.dtb.rdAccesses                0                       # TLB accesses on read requests (Count)
system.atomicCpu0.mmu.dtb.wrAccesses                0                       # TLB accesses on write requests (Count)
system.atomicCpu0.mmu.dtb.rdMisses                  0                       # TLB misses on read requests (Count)
system.atomicCpu0.mmu.dtb.wrMisses                  0                       # TLB misses on write requests (Count)
system.atomicCpu0.mmu.dtb.walker.power_state.pwrStateResidencyTicks::UNDEFINED 161956989371251                       # Cumulative time (in ticks) in various power states (Tick)
system.atomicCpu0.mmu.itb.rdAccesses                0                       # TLB accesses on read requests (Count)
system.atomicCpu0.mmu.itb.wrAccesses                0                       # TLB accesses on write requests (Count)
system.atomicCpu0.mmu.itb.rdMisses                  0                       # TLB misses on read requests (Count)
system.atomicCpu0.mmu.itb.wrMisses                  0                       # TLB misses on write requests (Count)
system.atomicCpu0.mmu.itb.walker.power_state.pwrStateResidencyTicks::UNDEFINED 161956989371251                       # Cumulative time (in ticks) in various power states (Tick)
system.atomicCpu0.power_state.pwrStateResidencyTicks::OFF 161956989371251                       # Cumulative time (in ticks) in various power states (Tick)
system.atomicCpu0.thread_0.numInsts                 0                       # Number of Instructions committed (Count)
system.atomicCpu0.thread_0.numOps                   0                       # Number of Ops committed (Count)
system.atomicCpu0.thread_0.numMemRefs               0                       # Number of Memory References (Count)
system.atomicCpu1.numCycles                         0                       # Number of cpu cycles simulated (Cycle)
system.atomicCpu1.numWorkItemsStarted               0                       # Number of work items this cpu started (Count)
system.atomicCpu1.numWorkItemsCompleted             0                       # Number of work items this cpu completed (Count)
system.atomicCpu1.exec_context.thread_0.numInsts            0                       # Number of instructions committed (Count)
system.atomicCpu1.exec_context.thread_0.numOps            0                       # Number of ops (including micro ops) committed (Count)
system.atomicCpu1.exec_context.thread_0.numIntAluAccesses            0                       # Number of integer alu accesses (Count)
system.atomicCpu1.exec_context.thread_0.numFpAluAccesses            0                       # Number of float alu accesses (Count)
system.atomicCpu1.exec_context.thread_0.numVecAluAccesses            0                       # Number of vector alu accesses (Count)
system.atomicCpu1.exec_context.thread_0.numCallsReturns            0                       # Number of times a function call or return occured (Count)
system.atomicCpu1.exec_context.thread_0.numCondCtrlInsts            0                       # Number of instructions that are conditional controls (Count)
system.atomicCpu1.exec_context.thread_0.numIntInsts            0                       # Number of integer instructions (Count)
system.atomicCpu1.exec_context.thread_0.numFpInsts            0                       # Number of float instructions (Count)
system.atomicCpu1.exec_context.thread_0.numVecInsts            0                       # Number of vector instructions (Count)
system.atomicCpu1.exec_context.thread_0.numIntRegReads            0                       # Number of times the integer registers were read (Count)
system.atomicCpu1.exec_context.thread_0.numIntRegWrites            0                       # Number of times the integer registers were written (Count)
system.atomicCpu1.exec_context.thread_0.numFpRegReads            0                       # Number of times the floating registers were read (Count)
system.atomicCpu1.exec_context.thread_0.numFpRegWrites            0                       # Number of times the floating registers were written (Count)
system.atomicCpu1.exec_context.thread_0.numVecRegReads            0                       # Number of times the vector registers were read (Count)
system.atomicCpu1.exec_context.thread_0.numVecRegWrites            0                       # Number of times the vector registers were written (Count)
system.atomicCpu1.exec_context.thread_0.numVecPredRegReads            0                       # Number of times the predicate registers were read (Count)
system.atomicCpu1.exec_context.thread_0.numVecPredRegWrites            0                       # Number of times the predicate registers were written (Count)
system.atomicCpu1.exec_context.thread_0.numMiscRegReads            0                       # Number of times the Misc registers were read (Count)
system.atomicCpu1.exec_context.thread_0.numMiscRegWrites            0                       # Number of times the Misc registers were written (Count)
system.atomicCpu1.exec_context.thread_0.numMemRefs            0                       # Number of memory refs (Count)
system.atomicCpu1.exec_context.thread_0.numLoadInsts            0                       # Number of load instructions (Count)
system.atomicCpu1.exec_context.thread_0.numStoreInsts            0                       # Number of store instructions (Count)
system.atomicCpu1.exec_context.thread_0.numIdleCycles            0                       # Number of idle cycles (Cycle)
system.atomicCpu1.exec_context.thread_0.numBusyCycles            0                       # Number of busy cycles (Cycle)
system.atomicCpu1.exec_context.thread_0.notIdleFraction            0                       # Percentage of non-idle cycles (Ratio)
system.atomicCpu1.exec_context.thread_0.idleFraction            1                       # Percentage of idle cycles (Ratio)
system.atomicCpu1.exec_context.thread_0.statExecutedInstType::No_OpClass            0                       # Class of executed instruction. (Count)
system.atomicCpu1.exec_context.thread_0.statExecutedInstType::IntAlu            0                       # Class of executed instruction. (Count)
system.atomicCpu1.exec_context.thread_0.statExecutedInstType::IntMult            0                       # Class of executed instruction. (Count)
system.atomicCpu1.exec_context.thread_0.statExecutedInstType::IntDiv            0                       # Class of executed instruction. (Count)
system.atomicCpu1.exec_context.thread_0.statExecutedInstType::FloatAdd            0                       # Class of executed instruction. (Count)
system.atomicCpu1.exec_context.thread_0.statExecutedInstType::FloatCmp            0                       # Class of executed instruction. (Count)
system.atomicCpu1.exec_context.thread_0.statExecutedInstType::FloatCvt            0                       # Class of executed instruction. (Count)
system.atomicCpu1.exec_context.thread_0.statExecutedInstType::FloatMult            0                       # Class of executed instruction. (Count)
system.atomicCpu1.exec_context.thread_0.statExecutedInstType::FloatMultAcc            0                       # Class of executed instruction. (Count)
system.atomicCpu1.exec_context.thread_0.statExecutedInstType::FloatDiv            0                       # Class of executed instruction. (Count)
system.atomicCpu1.exec_context.thread_0.statExecutedInstType::FloatMisc            0                       # Class of executed instruction. (Count)
system.atomicCpu1.exec_context.thread_0.statExecutedInstType::FloatSqrt            0                       # Class of executed instruction. (Count)
system.atomicCpu1.exec_context.thread_0.statExecutedInstType::SimdAdd            0                       # Class of executed instruction. (Count)
system.atomicCpu1.exec_context.thread_0.statExecutedInstType::SimdAddAcc            0                       # Class of executed instruction. (Count)
system.atomicCpu1.exec_context.thread_0.statExecutedInstType::SimdAlu            0                       # Class of executed instruction. (Count)
system.atomicCpu1.exec_context.thread_0.statExecutedInstType::SimdCmp            0                       # Class of executed instruction. (Count)
system.atomicCpu1.exec_context.thread_0.statExecutedInstType::SimdCvt            0                       # Class of executed instruction. (Count)
system.atomicCpu1.exec_context.thread_0.statExecutedInstType::SimdMisc            0                       # Class of executed instruction. (Count)
system.atomicCpu1.exec_context.thread_0.statExecutedInstType::SimdMult            0                       # Class of executed instruction. (Count)
system.atomicCpu1.exec_context.thread_0.statExecutedInstType::SimdMultAcc            0                       # Class of executed instruction. (Count)
system.atomicCpu1.exec_context.thread_0.statExecutedInstType::SimdShift            0                       # Class of executed instruction. (Count)
system.atomicCpu1.exec_context.thread_0.statExecutedInstType::SimdShiftAcc            0                       # Class of executed instruction. (Count)
system.atomicCpu1.exec_context.thread_0.statExecutedInstType::SimdDiv            0                       # Class of executed instruction. (Count)
system.atomicCpu1.exec_context.thread_0.statExecutedInstType::SimdSqrt            0                       # Class of executed instruction. (Count)
system.atomicCpu1.exec_context.thread_0.statExecutedInstType::SimdFloatAdd            0                       # Class of executed instruction. (Count)
system.atomicCpu1.exec_context.thread_0.statExecutedInstType::SimdFloatAlu            0                       # Class of executed instruction. (Count)
system.atomicCpu1.exec_context.thread_0.statExecutedInstType::SimdFloatCmp            0                       # Class of executed instruction. (Count)
system.atomicCpu1.exec_context.thread_0.statExecutedInstType::SimdFloatCvt            0                       # Class of executed instruction. (Count)
system.atomicCpu1.exec_context.thread_0.statExecutedInstType::SimdFloatDiv            0                       # Class of executed instruction. (Count)
system.atomicCpu1.exec_context.thread_0.statExecutedInstType::SimdFloatMisc            0                       # Class of executed instruction. (Count)
system.atomicCpu1.exec_context.thread_0.statExecutedInstType::SimdFloatMult            0                       # Class of executed instruction. (Count)
system.atomicCpu1.exec_context.thread_0.statExecutedInstType::SimdFloatMultAcc            0                       # Class of executed instruction. (Count)
system.atomicCpu1.exec_context.thread_0.statExecutedInstType::SimdFloatSqrt            0                       # Class of executed instruction. (Count)
system.atomicCpu1.exec_context.thread_0.statExecutedInstType::SimdReduceAdd            0                       # Class of executed instruction. (Count)
system.atomicCpu1.exec_context.thread_0.statExecutedInstType::SimdReduceAlu            0                       # Class of executed instruction. (Count)
system.atomicCpu1.exec_context.thread_0.statExecutedInstType::SimdReduceCmp            0                       # Class of executed instruction. (Count)
system.atomicCpu1.exec_context.thread_0.statExecutedInstType::SimdFloatReduceAdd            0                       # Class of executed instruction. (Count)
system.atomicCpu1.exec_context.thread_0.statExecutedInstType::SimdFloatReduceCmp            0                       # Class of executed instruction. (Count)
system.atomicCpu1.exec_context.thread_0.statExecutedInstType::SimdAes            0                       # Class of executed instruction. (Count)
system.atomicCpu1.exec_context.thread_0.statExecutedInstType::SimdAesMix            0                       # Class of executed instruction. (Count)
system.atomicCpu1.exec_context.thread_0.statExecutedInstType::SimdSha1Hash            0                       # Class of executed instruction. (Count)
system.atomicCpu1.exec_context.thread_0.statExecutedInstType::SimdSha1Hash2            0                       # Class of executed instruction. (Count)
system.atomicCpu1.exec_context.thread_0.statExecutedInstType::SimdSha256Hash            0                       # Class of executed instruction. (Count)
system.atomicCpu1.exec_context.thread_0.statExecutedInstType::SimdSha256Hash2            0                       # Class of executed instruction. (Count)
system.atomicCpu1.exec_context.thread_0.statExecutedInstType::SimdShaSigma2            0                       # Class of executed instruction. (Count)
system.atomicCpu1.exec_context.thread_0.statExecutedInstType::SimdShaSigma3            0                       # Class of executed instruction. (Count)
system.atomicCpu1.exec_context.thread_0.statExecutedInstType::SimdPredAlu            0                       # Class of executed instruction. (Count)
system.atomicCpu1.exec_context.thread_0.statExecutedInstType::MemRead            0                       # Class of executed instruction. (Count)
system.atomicCpu1.exec_context.thread_0.statExecutedInstType::MemWrite            0                       # Class of executed instruction. (Count)
system.atomicCpu1.exec_context.thread_0.statExecutedInstType::FloatMemRead            0                       # Class of executed instruction. (Count)
system.atomicCpu1.exec_context.thread_0.statExecutedInstType::FloatMemWrite            0                       # Class of executed instruction. (Count)
system.atomicCpu1.exec_context.thread_0.statExecutedInstType::IprAccess            0                       # Class of executed instruction. (Count)
system.atomicCpu1.exec_context.thread_0.statExecutedInstType::InstPrefetch            0                       # Class of executed instruction. (Count)
system.atomicCpu1.exec_context.thread_0.statExecutedInstType::total            0                       # Class of executed instruction. (Count)
system.atomicCpu1.mmu.dtb.rdAccesses                0                       # TLB accesses on read requests (Count)
system.atomicCpu1.mmu.dtb.wrAccesses                0                       # TLB accesses on write requests (Count)
system.atomicCpu1.mmu.dtb.rdMisses                  0                       # TLB misses on read requests (Count)
system.atomicCpu1.mmu.dtb.wrMisses                  0                       # TLB misses on write requests (Count)
system.atomicCpu1.mmu.dtb.walker.power_state.pwrStateResidencyTicks::UNDEFINED 161956989371251                       # Cumulative time (in ticks) in various power states (Tick)
system.atomicCpu1.mmu.itb.rdAccesses                0                       # TLB accesses on read requests (Count)
system.atomicCpu1.mmu.itb.wrAccesses                0                       # TLB accesses on write requests (Count)
system.atomicCpu1.mmu.itb.rdMisses                  0                       # TLB misses on read requests (Count)
system.atomicCpu1.mmu.itb.wrMisses                  0                       # TLB misses on write requests (Count)
system.atomicCpu1.mmu.itb.walker.power_state.pwrStateResidencyTicks::UNDEFINED 161956989371251                       # Cumulative time (in ticks) in various power states (Tick)
system.atomicCpu1.power_state.pwrStateResidencyTicks::OFF 161956989371251                       # Cumulative time (in ticks) in various power states (Tick)
system.atomicCpu1.thread_0.numInsts                 0                       # Number of Instructions committed (Count)
system.atomicCpu1.thread_0.numOps                   0                       # Number of Ops committed (Count)
system.atomicCpu1.thread_0.numMemRefs               0                       # Number of Memory References (Count)
system.caches.delayHistogram::bucket_size           64                       # delay histogram for all message (Unspecified)
system.caches.delayHistogram::max_bucket          639                       # delay histogram for all message (Unspecified)
system.caches.delayHistogram::samples       577696844                       # delay histogram for all message (Unspecified)
system.caches.delayHistogram::mean           0.135856                       # delay histogram for all message (Unspecified)
system.caches.delayHistogram::stdev          1.032239                       # delay histogram for all message (Unspecified)
system.caches.delayHistogram             |   577696828    100.00%    100.00% |          12      0.00%    100.00% |           0      0.00%    100.00% |           0      0.00%    100.00% |           0      0.00%    100.00% |           0      0.00%    100.00% |           0      0.00%    100.00% |           1      0.00%    100.00% |           2      0.00%    100.00% |           1      0.00%    100.00% # delay histogram for all message (Unspecified)
system.caches.delayHistogram::total         577696844                       # delay histogram for all message (Unspecified)
system.caches.m_outstandReqHistSeqr::bucket_size            1                       (Unspecified)
system.caches.m_outstandReqHistSeqr::max_bucket            9                       (Unspecified)
system.caches.m_outstandReqHistSeqr::samples   3043773471                       (Unspecified)
system.caches.m_outstandReqHistSeqr::mean     1.005246                       (Unspecified)
system.caches.m_outstandReqHistSeqr::gmean     1.003643                       (Unspecified)
system.caches.m_outstandReqHistSeqr::stdev     0.072238                       (Unspecified)
system.caches.m_outstandReqHistSeqr      |           0      0.00%      0.00% |  3027806204     99.48%     99.48% |    15967267      0.52%    100.00% |           0      0.00%    100.00% |           0      0.00%    100.00% |           0      0.00%    100.00% |           0      0.00%    100.00% |           0      0.00%    100.00% |           0      0.00%    100.00% |           0      0.00%    100.00% (Unspecified)
system.caches.m_outstandReqHistSeqr::total   3043773471                       (Unspecified)
system.caches.m_latencyHistSeqr::bucket_size          512                       (Unspecified)
system.caches.m_latencyHistSeqr::max_bucket         5119                       (Unspecified)
system.caches.m_latencyHistSeqr::samples   3043773470                       (Unspecified)
system.caches.m_latencyHistSeqr::mean        4.314476                       (Unspecified)
system.caches.m_latencyHistSeqr::gmean       1.212536                       (Unspecified)
system.caches.m_latencyHistSeqr::stdev      35.507026                       (Unspecified)
system.caches.m_latencyHistSeqr          |  3041575240     99.93%     99.93% |     1691509      0.06%     99.98% |      251824      0.01%     99.99% |      248231      0.01%    100.00% |        6620      0.00%    100.00% |          46      0.00%    100.00% |           0      0.00%    100.00% |           0      0.00%    100.00% |           0      0.00%    100.00% |           0      0.00%    100.00% (Unspecified)
system.caches.m_latencyHistSeqr::total     3043773470                       (Unspecified)
system.caches.m_hitLatencyHistSeqr::bucket_size            1                       (Unspecified)
system.caches.m_hitLatencyHistSeqr::max_bucket            9                       (Unspecified)
system.caches.m_hitLatencyHistSeqr::samples   2844109530                       (Unspecified)
system.caches.m_hitLatencyHistSeqr::mean            1                       (Unspecified)
system.caches.m_hitLatencyHistSeqr::gmean            1                       (Unspecified)
system.caches.m_hitLatencyHistSeqr       |           0      0.00%      0.00% |  2844109530    100.00%    100.00% |           0      0.00%    100.00% |           0      0.00%    100.00% |           0      0.00%    100.00% |           0      0.00%    100.00% |           0      0.00%    100.00% |           0      0.00%    100.00% |           0      0.00%    100.00% |           0      0.00%    100.00% (Unspecified)
system.caches.m_hitLatencyHistSeqr::total   2844109530                       (Unspecified)
system.caches.m_missLatencyHistSeqr::bucket_size          512                       (Unspecified)
system.caches.m_missLatencyHistSeqr::max_bucket         5119                       (Unspecified)
system.caches.m_missLatencyHistSeqr::samples    199663940                       (Unspecified)
system.caches.m_missLatencyHistSeqr::mean    51.527479                       (Unspecified)
system.caches.m_missLatencyHistSeqr::gmean    18.874768                       (Unspecified)
system.caches.m_missLatencyHistSeqr::stdev   129.745560                       (Unspecified)
system.caches.m_missLatencyHistSeqr      |   197465710     98.90%     98.90% |     1691509      0.85%     99.75% |      251824      0.13%     99.87% |      248231      0.12%    100.00% |        6620      0.00%    100.00% |          46      0.00%    100.00% |           0      0.00%    100.00% |           0      0.00%    100.00% |           0      0.00%    100.00% |           0      0.00%    100.00% (Unspecified)
system.caches.m_missLatencyHistSeqr::total    199663940                       (Unspecified)
system.caches.delayVCHist.vnet_0::bucket_size           64                       # delay histogram for vnet_0 (Unspecified)
system.caches.delayVCHist.vnet_0::max_bucket          639                       # delay histogram for vnet_0 (Unspecified)
system.caches.delayVCHist.vnet_0::samples    284400244                       # delay histogram for vnet_0 (Unspecified)
system.caches.delayVCHist.vnet_0::mean       0.037896                       # delay histogram for vnet_0 (Unspecified)
system.caches.delayVCHist.vnet_0::stdev      0.545165                       # delay histogram for vnet_0 (Unspecified)
system.caches.delayVCHist.vnet_0         |   284400228    100.00%    100.00% |          12      0.00%    100.00% |           0      0.00%    100.00% |           0      0.00%    100.00% |           0      0.00%    100.00% |           0      0.00%    100.00% |           0      0.00%    100.00% |           1      0.00%    100.00% |           2      0.00%    100.00% |           1      0.00%    100.00% # delay histogram for vnet_0 (Unspecified)
system.caches.delayVCHist.vnet_0::total     284400244                       # delay histogram for vnet_0 (Unspecified)
system.caches.delayVCHist.vnet_1::bucket_size            2                       # delay histogram for vnet_1 (Unspecified)
system.caches.delayVCHist.vnet_1::max_bucket           19                       # delay histogram for vnet_1 (Unspecified)
system.caches.delayVCHist.vnet_1::samples    288845248                       # delay histogram for vnet_1 (Unspecified)
system.caches.delayVCHist.vnet_1::mean       0.234392                       # delay histogram for vnet_1 (Unspecified)
system.caches.delayVCHist.vnet_1::stdev      1.348691                       # delay histogram for vnet_1 (Unspecified)
system.caches.delayVCHist.vnet_1         |   280365616     97.06%     97.06% |       12767      0.00%     97.07% |        9476      0.00%     97.07% |       17978      0.01%     97.08% |     8431154      2.92%    100.00% |        8257      0.00%    100.00% |           0      0.00%    100.00% |           0      0.00%    100.00% |           0      0.00%    100.00% |           0      0.00%    100.00% # delay histogram for vnet_1 (Unspecified)
system.caches.delayVCHist.vnet_1::total     288845248                       # delay histogram for vnet_1 (Unspecified)
system.caches.delayVCHist.vnet_2::bucket_size            1                       # delay histogram for vnet_2 (Unspecified)
system.caches.delayVCHist.vnet_2::max_bucket            9                       # delay histogram for vnet_2 (Unspecified)
system.caches.delayVCHist.vnet_2::samples      4451352                       # delay histogram for vnet_2 (Unspecified)
system.caches.delayVCHist.vnet_2::mean       0.000629                       # delay histogram for vnet_2 (Unspecified)
system.caches.delayVCHist.vnet_2::stdev      0.035514                       # delay histogram for vnet_2 (Unspecified)
system.caches.delayVCHist.vnet_2         |     4449954     99.97%     99.97% |           0      0.00%     99.97% |        1396      0.03%    100.00% |           0      0.00%    100.00% |           2      0.00%    100.00% |           0      0.00%    100.00% |           0      0.00%    100.00% |           0      0.00%    100.00% |           0      0.00%    100.00% |           0      0.00%    100.00% # delay histogram for vnet_2 (Unspecified)
system.caches.delayVCHist.vnet_2::total       4451352                       # delay histogram for vnet_2 (Unspecified)
system.caches.L1Cache_Controller.Load    |   451897078     49.94%     49.94% |   452926008     50.06%    100.00% (Unspecified)
system.caches.L1Cache_Controller.Load::total    904823086                       (Unspecified)
system.caches.L1Cache_Controller.Ifetch  |  1051185782     49.59%     49.59% |  1068385169     50.41%    100.00% (Unspecified)
system.caches.L1Cache_Controller.Ifetch::total   2119570951                       (Unspecified)
system.caches.L1Cache_Controller.Store   |     9941779     51.30%     51.30% |     9437655     48.70%    100.00% (Unspecified)
system.caches.L1Cache_Controller.Store::total     19379434                       (Unspecified)
system.caches.L1Cache_Controller.Inv     |     1426384     50.29%     50.29% |     1409740     49.71%    100.00% (Unspecified)
system.caches.L1Cache_Controller.Inv::total      2836124                       (Unspecified)
system.caches.L1Cache_Controller.L1_Replacement |    99641015     49.99%     49.99% |    99677758     50.01%    100.00% (Unspecified)
system.caches.L1Cache_Controller.L1_Replacement::total    199318773                       (Unspecified)
system.caches.L1Cache_Controller.Fwd_GETX |       42100     49.73%     49.73% |       42562     50.27%    100.00% (Unspecified)
system.caches.L1Cache_Controller.Fwd_GETX::total        84662                       (Unspecified)
system.caches.L1Cache_Controller.Fwd_GETS |      771334     50.40%     50.40% |      759232     49.60%    100.00% (Unspecified)
system.caches.L1Cache_Controller.Fwd_GETS::total      1530566                       (Unspecified)
system.caches.L1Cache_Controller.Data    |       56151     45.12%     45.12% |       68302     54.88%    100.00% (Unspecified)
system.caches.L1Cache_Controller.Data::total       124453                       (Unspecified)
system.caches.L1Cache_Controller.Data_Exclusive |    20781261     49.94%     49.94% |    20831766     50.06%    100.00% (Unspecified)
system.caches.L1Cache_Controller.Data_Exclusive::total     41613027                       (Unspecified)
system.caches.L1Cache_Controller.DataS_fromL1 |      759232     49.60%     49.60% |      771334     50.40%    100.00% (Unspecified)
system.caches.L1Cache_Controller.DataS_fromL1::total      1530566                       (Unspecified)
system.caches.L1Cache_Controller.Data_all_Acks |    78158179     50.01%     50.01% |    78121155     49.99%    100.00% (Unspecified)
system.caches.L1Cache_Controller.Data_all_Acks::total    156279334                       (Unspecified)
system.caches.L1Cache_Controller.Ack     |       62594     53.70%     53.70% |       53966     46.30%    100.00% (Unspecified)
system.caches.L1Cache_Controller.Ack::total       116560                       (Unspecified)
system.caches.L1Cache_Controller.Ack_all |      118745     49.27%     49.27% |      122268     50.73%    100.00% (Unspecified)
system.caches.L1Cache_Controller.Ack_all::total       241013                       (Unspecified)
system.caches.L1Cache_Controller.WB_Ack  |    20381377     49.96%     49.96% |    20410132     50.04%    100.00% (Unspecified)
system.caches.L1Cache_Controller.WB_Ack::total     40791509                       (Unspecified)
system.caches.L1Cache_Controller.NP.Load |    99266157     49.97%     49.97% |    99368192     50.03%    100.00% (Unspecified)
system.caches.L1Cache_Controller.NP.Load::total    198634349                       (Unspecified)
system.caches.L1Cache_Controller.NP.Ifetch |       67007     68.88%     68.88% |       30269     31.12%    100.00% (Unspecified)
system.caches.L1Cache_Controller.NP.Ifetch::total        97276                       (Unspecified)
system.caches.L1Cache_Controller.NP.Store |      316555     52.36%     52.36% |      287996     47.64%    100.00% (Unspecified)
system.caches.L1Cache_Controller.NP.Store::total       604551                       (Unspecified)
system.caches.L1Cache_Controller.NP.Inv  |     1315515     50.34%     50.34% |     1297850     49.66%    100.00% (Unspecified)
system.caches.L1Cache_Controller.NP.Inv::total      2613365                       (Unspecified)
system.caches.L1Cache_Controller.I.Load  |       18792     41.00%     41.00% |       27040     59.00%    100.00% (Unspecified)
system.caches.L1Cache_Controller.I.Load::total        45832                       (Unspecified)
system.caches.L1Cache_Controller.I.Ifetch |       46406     54.41%     54.41% |       38877     45.59%    100.00% (Unspecified)
system.caches.L1Cache_Controller.I.Ifetch::total        85283                       (Unspecified)
system.caches.L1Cache_Controller.I.Store |       39247     50.14%     50.14% |       39023     49.86%    100.00% (Unspecified)
system.caches.L1Cache_Controller.I.Store::total        78270                       (Unspecified)
system.caches.L1Cache_Controller.I.L1_Replacement |       47847     49.90%     49.90% |       48041     50.10%    100.00% (Unspecified)
system.caches.L1Cache_Controller.I.L1_Replacement::total        95888                       (Unspecified)
system.caches.L1Cache_Controller.S.Load  |   209756668     50.08%     50.08% |   209108173     49.92%    100.00% (Unspecified)
system.caches.L1Cache_Controller.S.Load::total    418864841                       (Unspecified)
system.caches.L1Cache_Controller.S.Ifetch |  1051072369     49.59%     49.59% |  1068316023     50.41%    100.00% (Unspecified)
system.caches.L1Cache_Controller.S.Ifetch::total   2119388392                       (Unspecified)
system.caches.L1Cache_Controller.S.Store |       63254     53.43%     53.43% |       55126     46.57%    100.00% (Unspecified)
system.caches.L1Cache_Controller.S.Store::total       118380                       (Unspecified)
system.caches.L1Cache_Controller.S.Inv   |      109243     49.82%     49.82% |      110026     50.18%    100.00% (Unspecified)
system.caches.L1Cache_Controller.S.Inv::total       219269                       (Unspecified)
system.caches.L1Cache_Controller.S.L1_Replacement |    79211791     50.00%     50.00% |    79219585     50.00%    100.00% (Unspecified)
system.caches.L1Cache_Controller.S.L1_Replacement::total    158431376                       (Unspecified)
system.caches.L1Cache_Controller.E.Load  |   137159352     49.62%     49.62% |   139243514     50.38%    100.00% (Unspecified)
system.caches.L1Cache_Controller.E.Load::total    276402866                       (Unspecified)
system.caches.L1Cache_Controller.E.Store |      298052     51.15%     51.15% |      284652     48.85%    100.00% (Unspecified)
system.caches.L1Cache_Controller.E.Store::total       582704                       (Unspecified)
system.caches.L1Cache_Controller.E.Inv   |         579     53.81%     53.81% |         497     46.19%    100.00% (Unspecified)
system.caches.L1Cache_Controller.E.Inv::total         1076                       (Unspecified)
system.caches.L1Cache_Controller.E.L1_Replacement |    19776549     49.92%     49.92% |    19839541     50.08%    100.00% (Unspecified)
system.caches.L1Cache_Controller.E.L1_Replacement::total     39616090                       (Unspecified)
system.caches.L1Cache_Controller.E.Fwd_GETX |          25      2.67%      2.67% |         911     97.33%    100.00% (Unspecified)
system.caches.L1Cache_Controller.E.Fwd_GETX::total          936                       (Unspecified)
system.caches.L1Cache_Controller.E.Fwd_GETS |      704891     50.00%     50.00% |      704963     50.00%    100.00% (Unspecified)
system.caches.L1Cache_Controller.E.Fwd_GETS::total      1409854                       (Unspecified)
system.caches.L1Cache_Controller.M.Load  |     5696109     52.38%     52.38% |     5179089     47.62%    100.00% (Unspecified)
system.caches.L1Cache_Controller.M.Load::total     10875198                       (Unspecified)
system.caches.L1Cache_Controller.M.Store |     9224671     51.26%     51.26% |     8770858     48.74%    100.00% (Unspecified)
system.caches.L1Cache_Controller.M.Store::total     17995529                       (Unspecified)
system.caches.L1Cache_Controller.M.Inv   |         386     65.31%     65.31% |         205     34.69%    100.00% (Unspecified)
system.caches.L1Cache_Controller.M.Inv::total          591                       (Unspecified)
system.caches.L1Cache_Controller.M.L1_Replacement |      604828     51.46%     51.46% |      570591     48.54%    100.00% (Unspecified)
system.caches.L1Cache_Controller.M.L1_Replacement::total      1175419                       (Unspecified)
system.caches.L1Cache_Controller.M.Fwd_GETX |       42075     50.25%     50.25% |       41651     49.75%    100.00% (Unspecified)
system.caches.L1Cache_Controller.M.Fwd_GETX::total        83726                       (Unspecified)
system.caches.L1Cache_Controller.M.Fwd_GETS |       66429     55.04%     55.04% |       54256     44.96%    100.00% (Unspecified)
system.caches.L1Cache_Controller.M.Fwd_GETS::total       120685                       (Unspecified)
system.caches.L1Cache_Controller.IS.Inv  |           1     33.33%     33.33% |           2     66.67%    100.00% (Unspecified)
system.caches.L1Cache_Controller.IS.Inv::total            3                       (Unspecified)
system.caches.L1Cache_Controller.IS.Data_Exclusive |    20781260     49.94%     49.94% |    20831766     50.06%    100.00% (Unspecified)
system.caches.L1Cache_Controller.IS.Data_Exclusive::total     41613026                       (Unspecified)
system.caches.L1Cache_Controller.IS.DataS_fromL1 |      759232     49.60%     49.60% |      771332     50.40%    100.00% (Unspecified)
system.caches.L1Cache_Controller.IS.DataS_fromL1::total      1530564                       (Unspecified)
system.caches.L1Cache_Controller.IS.Data_all_Acks |    77857868     50.00%     50.00% |    77861278     50.00%    100.00% (Unspecified)
system.caches.L1Cache_Controller.IS.Data_all_Acks::total    155719146                       (Unspecified)
system.caches.L1Cache_Controller.IM.Data |       56151     45.12%     45.12% |       68302     54.88%    100.00% (Unspecified)
system.caches.L1Cache_Controller.IM.Data::total       124453                       (Unspecified)
system.caches.L1Cache_Controller.IM.Data_all_Acks |      300311     53.61%     53.61% |      259877     46.39%    100.00% (Unspecified)
system.caches.L1Cache_Controller.IM.Data_all_Acks::total       560188                       (Unspecified)
system.caches.L1Cache_Controller.SM.Inv  |         660     36.26%     36.26% |        1160     63.74%    100.00% (Unspecified)
system.caches.L1Cache_Controller.SM.Inv::total         1820                       (Unspecified)
system.caches.L1Cache_Controller.SM.Ack  |       62594     53.70%     53.70% |       53966     46.30%    100.00% (Unspecified)
system.caches.L1Cache_Controller.SM.Ack::total       116560                       (Unspecified)
system.caches.L1Cache_Controller.SM.Ack_all |      118745     49.27%     49.27% |      122268     50.73%    100.00% (Unspecified)
system.caches.L1Cache_Controller.SM.Ack_all::total       241013                       (Unspecified)
system.caches.L1Cache_Controller.IS_I.Data_Exclusive |           1    100.00%    100.00% |           0      0.00%    100.00% (Unspecified)
system.caches.L1Cache_Controller.IS_I.Data_Exclusive::total            1                       (Unspecified)
system.caches.L1Cache_Controller.IS_I.DataS_fromL1 |           0      0.00%      0.00% |           2    100.00%    100.00% (Unspecified)
system.caches.L1Cache_Controller.IS_I.DataS_fromL1::total            2                       (Unspecified)
system.caches.L1Cache_Controller.M_I.Fwd_GETS |          14     51.85%     51.85% |          13     48.15%    100.00% (Unspecified)
system.caches.L1Cache_Controller.M_I.Fwd_GETS::total           27                       (Unspecified)
system.caches.L1Cache_Controller.M_I.WB_Ack |    20381363     49.96%     49.96% |    20410119     50.04%    100.00% (Unspecified)
system.caches.L1Cache_Controller.M_I.WB_Ack::total     40791482                       (Unspecified)
system.caches.L1Cache_Controller.SINK_WB_ACK.WB_Ack |          14     51.85%     51.85% |          13     48.15%    100.00% (Unspecified)
system.caches.L1Cache_Controller.SINK_WB_ACK.WB_Ack::total           27                       (Unspecified)
system.caches.Directory_Controller.Fetch     22077091      0.00%      0.00% (Unspecified)
system.caches.Directory_Controller.Data        980851      0.00%      0.00% (Unspecified)
system.caches.Directory_Controller.Memory_Data     22077090      0.00%      0.00% (Unspecified)
system.caches.Directory_Controller.Memory_Ack       980851      0.00%      0.00% (Unspecified)
system.caches.Directory_Controller.CleanReplacement     20965168      0.00%      0.00% (Unspecified)
system.caches.Directory_Controller.I.Fetch     22077091      0.00%      0.00% (Unspecified)
system.caches.Directory_Controller.M.Data       980851      0.00%      0.00% (Unspecified)
system.caches.Directory_Controller.M.CleanReplacement     20965168      0.00%      0.00% (Unspecified)
system.caches.Directory_Controller.IM.Memory_Data     22077090      0.00%      0.00% (Unspecified)
system.caches.Directory_Controller.MI.Memory_Ack       980851      0.00%      0.00% (Unspecified)
system.caches.L2Cache_Controller.L1_GET_INSTR |       14458      7.91%      7.91% |       28801     15.76%     23.68% |       24382     13.35%     37.02% |       11713      6.41%     43.43% |       19797     10.84%     54.27% |       25993     14.23%     68.50% |       28866     15.80%     84.30% |       28690     15.70%    100.00% (Unspecified)
system.caches.L2Cache_Controller.L1_GET_INSTR::total       182700                       (Unspecified)
system.caches.L2Cache_Controller.L1_GETS |    24857973     12.51%     12.51% |    24683143     12.42%     24.93% |    24275150     12.22%     37.15% |    24786125     12.48%     49.63% |    25925549     13.05%     62.68% |    24757040     12.46%     75.14% |    25026582     12.60%     87.73% |    24373861     12.27%    100.00% (Unspecified)
system.caches.L2Cache_Controller.L1_GETS::total    198685423                       (Unspecified)
system.caches.L2Cache_Controller.L1_GETX |       80626     11.77%     11.77% |       74714     10.91%     22.68% |       65631      9.58%     32.26% |      153197     22.37%     54.63% |       71867     10.49%     65.12% |       86062     12.57%     77.69% |       77312     11.29%     88.97% |       75519     11.03%    100.00% (Unspecified)
system.caches.L2Cache_Controller.L1_GETX::total       684928                       (Unspecified)
system.caches.L2Cache_Controller.L1_UPGRADE |         337      0.27%      0.27% |       56229     45.81%     46.09% |         166      0.14%     46.22% |         155      0.13%     46.35% |         213      0.17%     46.52% |       54598     44.48%     91.01% |       10770      8.78%     99.78% |         267      0.22%    100.00% (Unspecified)
system.caches.L2Cache_Controller.L1_UPGRADE::total       122735                       (Unspecified)
system.caches.L2Cache_Controller.L1_PUTX |     5094572     12.49%     12.49% |     5116410     12.54%     25.03% |     5085961     12.47%     37.50% |     5071883     12.43%     49.93% |     5149057     12.62%     62.56% |     5128417     12.57%     75.13% |     5104165     12.51%     87.64% |     5041071     12.36%    100.00% (Unspecified)
system.caches.L2Cache_Controller.L1_PUTX::total     40791536                       (Unspecified)
system.caches.L2Cache_Controller.L2_Replacement |      123091     12.55%     12.55% |      122548     12.49%     25.04% |      122422     12.48%     37.53% |      122376     12.48%     50.00% |      122352     12.47%     62.48% |      123092     12.55%     75.03% |      122316     12.47%     87.50% |      122623     12.50%    100.00% (Unspecified)
system.caches.L2Cache_Controller.L2_Replacement::total       980820                       (Unspecified)
system.caches.L2Cache_Controller.L2_Replacement_clean |     2620559     12.50%     12.50% |     2623300     12.51%     25.01% |     2621992     12.51%     37.52% |     2617725     12.49%     50.00% |     2618596     12.49%     62.49% |     2622928     12.51%     75.01% |     2617248     12.48%     87.49% |     2622851     12.51%    100.00% (Unspecified)
system.caches.L2Cache_Controller.L2_Replacement_clean::total     20965199                       (Unspecified)
system.caches.L2Cache_Controller.Mem_Data |     2760034     12.50%     12.50% |     2762232     12.51%     25.01% |     2760797     12.51%     37.52% |     2756485     12.49%     50.00% |     2757332     12.49%     62.49% |     2762404     12.51%     75.01% |     2755948     12.48%     87.49% |     2761858     12.51%    100.00% (Unspecified)
system.caches.L2Cache_Controller.Mem_Data::total     22077090                       (Unspecified)
system.caches.L2Cache_Controller.Mem_Ack |     2743650     12.50%     12.50% |     2745848     12.51%     25.01% |     2744414     12.51%     37.52% |     2740101     12.49%     50.00% |     2740948     12.49%     62.49% |     2746020     12.51%     75.01% |     2739564     12.48%     87.49% |     2745474     12.51%    100.00% (Unspecified)
system.caches.L2Cache_Controller.Mem_Ack::total     21946019                       (Unspecified)
system.caches.L2Cache_Controller.WB_Data |        3362      2.77%      2.77% |       54328     44.80%     47.57% |         361      0.30%     47.87% |         307      0.25%     48.12% |         387      0.32%     48.44% |       53468     44.09%     92.53% |        8597      7.09%     99.62% |         466      0.38%    100.00% (Unspecified)
system.caches.L2Cache_Controller.WB_Data::total       121276                       (Unspecified)
system.caches.L2Cache_Controller.WB_Data_clean |      167224     11.86%     11.86% |      168686     11.96%     23.83% |      167073     11.85%     35.68% |      165699     11.75%     47.43% |      163457     11.59%     59.02% |      165407     11.73%     70.75% |      164871     11.69%     82.45% |      247464     17.55%    100.00% (Unspecified)
system.caches.L2Cache_Controller.WB_Data_clean::total      1409881                       (Unspecified)
system.caches.L2Cache_Controller.Ack     |      152480     11.85%     11.85% |      153016     11.89%     23.75% |      151270     11.76%     35.51% |      149405     11.61%     47.12% |      148264     11.52%     58.64% |      150780     11.72%     70.36% |      149650     11.63%     82.00% |      231614     18.00%    100.00% (Unspecified)
system.caches.L2Cache_Controller.Ack::total      1286479                       (Unspecified)
system.caches.L2Cache_Controller.Ack_all |      155511     11.89%     11.89% |      155942     11.92%     23.81% |      153907     11.77%     35.58% |      152172     11.63%     47.21% |      150760     11.53%     58.74% |      153144     11.71%     70.44% |      151869     11.61%     82.05% |      234736     17.95%    100.00% (Unspecified)
system.caches.L2Cache_Controller.Ack_all::total      1308041                       (Unspecified)
system.caches.L2Cache_Controller.Unblock |      170442     11.14%     11.14% |      222950     14.57%     25.70% |      167394     10.94%     36.64% |      165908     10.84%     47.48% |      163775     10.70%     58.18% |      218790     14.29%     72.47% |      173434     11.33%     83.81% |      247873     16.19%    100.00% (Unspecified)
system.caches.L2Cache_Controller.Unblock::total      1530566                       (Unspecified)
system.caches.L2Cache_Controller.Exclusive_Unblock |     5267060     12.42%     12.42% |     5341431     12.59%     25.01% |     5254195     12.39%     37.40% |     5320090     12.54%     49.94% |     5313788     12.53%     62.47% |     5349243     12.61%     75.08% |     5278504     12.45%     87.53% |     5289917     12.47%    100.00% (Unspecified)
system.caches.L2Cache_Controller.Exclusive_Unblock::total     42414228                       (Unspecified)
system.caches.L2Cache_Controller.NP.L1_GET_INSTR |        8282     13.53%     13.53% |        8372     13.68%     27.20% |        7163     11.70%     38.91% |        6837     11.17%     50.07% |        7768     12.69%     62.76% |        7871     12.86%     75.62% |        7267     11.87%     87.49% |        7658     12.51%    100.00% (Unspecified)
system.caches.L2Cache_Controller.NP.L1_GET_INSTR::total        61218                       (Unspecified)
system.caches.L2Cache_Controller.NP.L1_GETS |     2713100     12.50%     12.50% |     2715705     12.51%     25.01% |     2715739     12.51%     37.51% |     2711536     12.49%     50.00% |     2711656     12.49%     62.49% |     2715713     12.51%     75.00% |     2710852     12.49%     87.49% |     2716196     12.51%    100.00% (Unspecified)
system.caches.L2Cache_Controller.NP.L1_GETS::total     21710497                       (Unspecified)
system.caches.L2Cache_Controller.NP.L1_GETX |       38652     12.66%     12.66% |       38155     12.49%     25.15% |       37896     12.41%     37.56% |       38112     12.48%     50.04% |       37908     12.41%     62.46% |       38820     12.71%     75.17% |       37829     12.39%     87.56% |       38004     12.44%    100.00% (Unspecified)
system.caches.L2Cache_Controller.NP.L1_GETX::total       305376                       (Unspecified)
system.caches.L2Cache_Controller.SS.L1_GET_INSTR |        3550      3.39%      3.39% |       17863     17.05%     20.44% |       15452     14.75%     35.19% |        2670      2.55%     37.74% |        9776      9.33%     47.07% |       16274     15.53%     62.60% |       19914     19.01%     81.61% |       19265     18.39%    100.00% (Unspecified)
system.caches.L2Cache_Controller.SS.L1_GET_INSTR::total       104764                       (Unspecified)
system.caches.L2Cache_Controller.SS.L1_GETS |    19500769     12.54%     12.54% |    19247617     12.38%     24.91% |    18919147     12.16%     37.08% |    19453308     12.51%     49.58% |    20519828     13.19%     62.78% |    19327613     12.43%     75.20% |    19653564     12.64%     87.84% |    18910889     12.16%    100.00% (Unspecified)
system.caches.L2Cache_Controller.SS.L1_GETS::total    155532735                       (Unspecified)
system.caches.L2Cache_Controller.SS.L1_GETX |       17692     14.22%     14.22% |       15018     12.07%     26.28% |       15029     12.08%     38.36% |       14956     12.02%     50.38% |       15123     12.15%     62.53% |       14753     11.85%     74.38% |       16755     13.46%     87.85% |       15127     12.15%    100.00% (Unspecified)
system.caches.L2Cache_Controller.SS.L1_GETX::total       124453                       (Unspecified)
system.caches.L2Cache_Controller.SS.L1_UPGRADE |         335      0.29%      0.29% |       55207     47.36%     47.65% |         166      0.14%     47.79% |         155      0.13%     47.93% |         213      0.18%     48.11% |       53583     45.97%     94.08% |        6636      5.69%     99.77% |         265      0.23%    100.00% (Unspecified)
system.caches.L2Cache_Controller.SS.L1_UPGRADE::total       116560                       (Unspecified)
system.caches.L2Cache_Controller.SS.L1_PUTX |           2      7.41%      7.41% |           3     11.11%     18.52% |           3     11.11%     29.63% |           5     18.52%     48.15% |           4     14.81%     62.96% |           3     11.11%     74.07% |           3     11.11%     85.19% |           4     14.81%    100.00% (Unspecified)
system.caches.L2Cache_Controller.SS.L1_PUTX::total           27                       (Unspecified)
system.caches.L2Cache_Controller.SS.L2_Replacement |       15920     12.67%     12.67% |       15747     12.53%     25.20% |       15553     12.38%     37.58% |       15685     12.48%     50.06% |       15542     12.37%     62.43% |       15506     12.34%     74.77% |       15982     12.72%     87.49% |       15715     12.51%    100.00% (Unspecified)
system.caches.L2Cache_Controller.SS.L2_Replacement::total       125650                       (Unspecified)
system.caches.L2Cache_Controller.SS.L2_Replacement_clean |      139346     11.80%     11.80% |      140045     11.86%     23.65% |      138276     11.71%     35.36% |      136370     11.54%     46.90% |      135055     11.43%     58.33% |      137521     11.64%     69.97% |      135781     11.49%     81.47% |      218921     18.53%    100.00% (Unspecified)
system.caches.L2Cache_Controller.SS.L2_Replacement_clean::total      1181315                       (Unspecified)
system.caches.L2Cache_Controller.M.L1_GETS |     2473311     12.43%     12.43% |     2496336     12.54%     24.97% |     2472763     12.42%     37.39% |     2455287     12.34%     49.73% |     2530168     12.71%     62.44% |     2494385     12.53%     74.97% |     2483800     12.48%     87.45% |     2498407     12.55%    100.00% (Unspecified)
system.caches.L2Cache_Controller.M.L1_GETS::total     19904457                       (Unspecified)
system.caches.L2Cache_Controller.M.L1_GETX |       23349     13.72%     13.72% |       20289     11.92%     25.65% |       12686      7.46%     33.10% |       18762     11.03%     44.13% |       18818     11.06%     55.19% |       31256     18.37%     73.56% |       22706     13.34%     86.90% |       22284     13.10%    100.00% (Unspecified)
system.caches.L2Cache_Controller.M.L1_GETX::total       170150                       (Unspecified)
system.caches.L2Cache_Controller.M.L2_Replacement |      107033     12.52%     12.52% |      106733     12.49%     25.01% |      106828     12.50%     37.52% |      106584     12.47%     49.99% |      106740     12.49%     62.48% |      107494     12.58%     75.06% |      106297     12.44%     87.50% |      106850     12.50%    100.00% (Unspecified)
system.caches.L2Cache_Controller.M.L2_Replacement::total       854559                       (Unspecified)
system.caches.L2Cache_Controller.M.L2_Replacement_clean |     2480962     12.54%     12.54% |     2483109     12.55%     25.09% |     2483639     12.55%     37.65% |     2481247     12.54%     50.19% |     2483379     12.55%     62.74% |     2485297     12.56%     75.31% |     2481364     12.54%     87.85% |     2403831     12.15%    100.00% (Unspecified)
system.caches.L2Cache_Controller.M.L2_Replacement_clean::total     19782828                       (Unspecified)
system.caches.L2Cache_Controller.MT.L1_GETS |      170442     11.14%     11.14% |      222950     14.57%     25.70% |      167394     10.94%     36.64% |      165908     10.84%     47.48% |      163775     10.70%     58.18% |      218790     14.29%     72.47% |      173434     11.33%     83.81% |      247873     16.19%    100.00% (Unspecified)
system.caches.L2Cache_Controller.MT.L1_GETS::total      1530566                       (Unspecified)
system.caches.L2Cache_Controller.MT.L1_GETX |         931      1.10%      1.10% |        1109      1.31%      2.41% |          19      0.02%      2.43% |       81364     96.10%     98.54% |          18      0.02%     98.56% |        1097      1.30%     99.85% |          22      0.03%     99.88% |         102      0.12%    100.00% (Unspecified)
system.caches.L2Cache_Controller.MT.L1_GETX::total        84662                       (Unspecified)
system.caches.L2Cache_Controller.MT.L1_PUTX |     5094568     12.49%     12.49% |     5116404     12.54%     25.03% |     5085955     12.47%     37.50% |     5071873     12.43%     49.93% |     5149049     12.62%     62.56% |     5128411     12.57%     75.13% |     5104159     12.51%     87.64% |     5041063     12.36%    100.00% (Unspecified)
system.caches.L2Cache_Controller.MT.L1_PUTX::total     40791482                       (Unspecified)
system.caches.L2Cache_Controller.MT.L2_Replacement |         138     22.59%     22.59% |          68     11.13%     33.72% |          41      6.71%     40.43% |         107     17.51%     57.94% |          70     11.46%     69.39% |          92     15.06%     84.45% |          37      6.06%     90.51% |          58      9.49%    100.00% (Unspecified)
system.caches.L2Cache_Controller.MT.L2_Replacement::total          611                       (Unspecified)
system.caches.L2Cache_Controller.MT.L2_Replacement_clean |         251     23.77%     23.77% |         146     13.83%     37.59% |          77      7.29%     44.89% |         108     10.23%     55.11% |         162     15.34%     70.45% |         110     10.42%     80.87% |         103      9.75%     90.62% |          99      9.38%    100.00% (Unspecified)
system.caches.L2Cache_Controller.MT.L2_Replacement_clean::total         1056                       (Unspecified)
system.caches.L2Cache_Controller.M_I.L1_GET_INSTR |           3      2.13%      2.13% |           0      0.00%      2.13% |           5      3.55%      5.67% |         130     92.20%     97.87% |           2      1.42%     99.29% |           0      0.00%     99.29% |           1      0.71%    100.00% |           0      0.00%    100.00% (Unspecified)
system.caches.L2Cache_Controller.M_I.L1_GET_INSTR::total          141                       (Unspecified)
system.caches.L2Cache_Controller.M_I.L1_GETS |          27     72.97%     72.97% |           3      8.11%     81.08% |           0      0.00%     81.08% |           1      2.70%     83.78% |           2      5.41%     89.19% |           3      8.11%     97.30% |           1      2.70%    100.00% |           0      0.00%    100.00% (Unspecified)
system.caches.L2Cache_Controller.M_I.L1_GETS::total           37                       (Unspecified)
system.caches.L2Cache_Controller.M_I.L1_GETX |           2     28.57%     28.57% |           1     14.29%     42.86% |           0      0.00%     42.86% |           0      0.00%     42.86% |           0      0.00%     42.86% |           4     57.14%    100.00% |           0      0.00%    100.00% |           0      0.00%    100.00% (Unspecified)
system.caches.L2Cache_Controller.M_I.L1_GETX::total            7                       (Unspecified)
system.caches.L2Cache_Controller.M_I.Mem_Ack |     2743650     12.50%     12.50% |     2745848     12.51%     25.01% |     2744414     12.51%     37.52% |     2740101     12.49%     50.00% |     2740948     12.49%     62.49% |     2746020     12.51%     75.01% |     2739564     12.48%     87.49% |     2745474     12.51%    100.00% (Unspecified)
system.caches.L2Cache_Controller.M_I.Mem_Ack::total     21946019                       (Unspecified)
system.caches.L2Cache_Controller.MT_I.WB_Data |         137     24.46%     24.46% |          60     10.71%     35.18% |          39      6.96%     42.14% |          94     16.79%     58.93% |          67     11.96%     70.89% |          78     13.93%     84.82% |          32      5.71%     90.54% |          53      9.46%    100.00% (Unspecified)
system.caches.L2Cache_Controller.MT_I.WB_Data::total          560                       (Unspecified)
system.caches.L2Cache_Controller.MT_I.Ack_all |           1      1.96%      1.96% |           8     15.69%     17.65% |           2      3.92%     21.57% |          13     25.49%     47.06% |           3      5.88%     52.94% |          14     27.45%     80.39% |           5      9.80%     90.20% |           5      9.80%    100.00% (Unspecified)
system.caches.L2Cache_Controller.MT_I.Ack_all::total           51                       (Unspecified)
system.caches.L2Cache_Controller.MCT_I.WB_Data |           7     22.58%     22.58% |           4     12.90%     35.48% |           1      3.23%     38.71% |           4     12.90%     51.61% |           2      6.45%     58.06% |           7     22.58%     80.65% |           2      6.45%     87.10% |           4     12.90%    100.00% (Unspecified)
system.caches.L2Cache_Controller.MCT_I.WB_Data::total           31                       (Unspecified)
system.caches.L2Cache_Controller.MCT_I.Ack_all |         244     23.80%     23.80% |         142     13.85%     37.66% |          76      7.41%     45.07% |         104     10.15%     55.22% |         160     15.61%     70.83% |         103     10.05%     80.88% |         101      9.85%     90.73% |          95      9.27%    100.00% (Unspecified)
system.caches.L2Cache_Controller.MCT_I.Ack_all::total         1025                       (Unspecified)
system.caches.L2Cache_Controller.I_I.L1_GETS |           0      0.00%      0.00% |           0      0.00%      0.00% |           0      0.00%      0.00% |           0      0.00%      0.00% |           0      0.00%      0.00% |           0      0.00%      0.00% |           1    100.00%    100.00% |           0      0.00%    100.00% (Unspecified)
system.caches.L2Cache_Controller.I_I.L1_GETS::total            1                       (Unspecified)
system.caches.L2Cache_Controller.I_I.Ack |      136560     11.76%     11.76% |      137269     11.83%     23.59% |      135717     11.69%     35.28% |      133720     11.52%     46.80% |      132722     11.43%     58.23% |      135274     11.65%     69.89% |      133668     11.51%     81.40% |      215899     18.60%    100.00% (Unspecified)
system.caches.L2Cache_Controller.I_I.Ack::total      1160829                       (Unspecified)
system.caches.L2Cache_Controller.I_I.Ack_all |      139346     11.80%     11.80% |      140045     11.86%     23.65% |      138276     11.71%     35.36% |      136370     11.54%     46.90% |      135055     11.43%     58.33% |      137521     11.64%     69.97% |      135781     11.49%     81.47% |      218921     18.53%    100.00% (Unspecified)
system.caches.L2Cache_Controller.I_I.Ack_all::total      1181315                       (Unspecified)
system.caches.L2Cache_Controller.S_I.Ack |       15920     12.67%     12.67% |       15747     12.53%     25.20% |       15553     12.38%     37.58% |       15685     12.48%     50.06% |       15542     12.37%     62.43% |       15506     12.34%     74.77% |       15982     12.72%     87.49% |       15715     12.51%    100.00% (Unspecified)
system.caches.L2Cache_Controller.S_I.Ack::total       125650                       (Unspecified)
system.caches.L2Cache_Controller.S_I.Ack_all |       15920     12.67%     12.67% |       15747     12.53%     25.20% |       15553     12.38%     37.58% |       15685     12.48%     50.06% |       15542     12.37%     62.43% |       15506     12.34%     74.77% |       15982     12.72%     87.49% |       15715     12.51%    100.00% (Unspecified)
system.caches.L2Cache_Controller.S_I.Ack_all::total       125650                       (Unspecified)
system.caches.L2Cache_Controller.ISS.L1_GETS |         310     16.10%     16.10% |         388     20.15%     36.24% |         102      5.30%     41.54% |          82      4.26%     45.79% |         116      6.02%     51.82% |         364     18.90%     70.72% |          96      4.98%     75.70% |         468     24.30%    100.00% (Unspecified)
system.caches.L2Cache_Controller.ISS.L1_GETS::total         1926                       (Unspecified)
system.caches.L2Cache_Controller.ISS.Mem_Data |     2712790     12.50%     12.50% |     2715317     12.51%     25.00% |     2715636     12.51%     37.51% |     2711454     12.49%     50.00% |     2711540     12.49%     62.49% |     2715349     12.51%     75.00% |     2710756     12.49%     87.49% |     2715728     12.51%    100.00% (Unspecified)
system.caches.L2Cache_Controller.ISS.Mem_Data::total     21708570                       (Unspecified)
system.caches.L2Cache_Controller.IS.L1_GET_INSTR |        2623     15.82%     15.82% |        2566     15.48%     31.30% |        1762     10.63%     41.93% |        2076     12.52%     54.45% |        2251     13.58%     68.03% |        1848     11.15%     79.18% |        1684     10.16%     89.34% |        1767     10.66%    100.00% (Unspecified)
system.caches.L2Cache_Controller.IS.L1_GET_INSTR::total        16577                       (Unspecified)
system.caches.L2Cache_Controller.IS.Mem_Data |        8592     13.61%     13.61% |        8760     13.87%     27.48% |        7265     11.51%     38.99% |        6919     10.96%     49.94% |        7884     12.49%     62.43% |        8235     13.04%     75.47% |        7363     11.66%     87.13% |        8126     12.87%    100.00% (Unspecified)
system.caches.L2Cache_Controller.IS.Mem_Data::total        63144                       (Unspecified)
system.caches.L2Cache_Controller.IM.L1_GETX |           0      0.00%      0.00% |           2     50.00%     50.00% |           1     25.00%     75.00% |           0      0.00%     75.00% |           0      0.00%     75.00% |           0      0.00%     75.00% |           0      0.00%     75.00% |           1     25.00%    100.00% (Unspecified)
system.caches.L2Cache_Controller.IM.L1_GETX::total            4                       (Unspecified)
system.caches.L2Cache_Controller.IM.Mem_Data |       38652     12.66%     12.66% |       38155     12.49%     25.15% |       37896     12.41%     37.56% |       38112     12.48%     50.04% |       37908     12.41%     62.46% |       38820     12.71%     75.17% |       37829     12.39%     87.56% |       38004     12.44%    100.00% (Unspecified)
system.caches.L2Cache_Controller.IM.Mem_Data::total       305376                       (Unspecified)
system.caches.L2Cache_Controller.SS_MB.L1_GETS |           0      0.00%      0.00% |         124      2.42%      2.42% |           0      0.00%      2.42% |           0      0.00%      2.42% |           0      0.00%      2.42% |         161      3.15%      5.57% |        4831     94.37%     99.94% |           3      0.06%    100.00% (Unspecified)
system.caches.L2Cache_Controller.SS_MB.L1_GETS::total         5119                       (Unspecified)
system.caches.L2Cache_Controller.SS_MB.L1_GETX |           0      0.00%      0.00% |         140     51.47%     51.47% |           0      0.00%     51.47% |           0      0.00%     51.47% |           0      0.00%     51.47% |         132     48.53%    100.00% |           0      0.00%    100.00% |           0      0.00%    100.00% (Unspecified)
system.caches.L2Cache_Controller.SS_MB.L1_GETX::total          272                       (Unspecified)
system.caches.L2Cache_Controller.SS_MB.L1_UPGRADE |           2      0.11%      0.11% |         920     50.55%     50.66% |           0      0.00%     50.66% |           0      0.00%     50.66% |           0      0.00%     50.66% |         896     49.23%     99.89% |           0      0.00%     99.89% |           2      0.11%    100.00% (Unspecified)
system.caches.L2Cache_Controller.SS_MB.L1_UPGRADE::total         1820                       (Unspecified)
[...]
system.timingCpu0.exec_context.thread_0.statExecutedInstType::FloatMemRead    133844017      9.14%     99.43% # Class of executed instruction. (Count)
system.timingCpu0.exec_context.thread_0.statExecutedInstType::FloatMemWrite      8276294      0.57%    100.00% # Class of executed instruction. (Count)
system.timingCpu0.exec_context.thread_0.statExecutedInstType::IprAccess            0      0.00%    100.00% # Class of executed instruction. (Count)
system.timingCpu0.exec_context.thread_0.statExecutedInstType::InstPrefetch            0      0.00%    100.00% # Class of executed instruction. (Count)
system.timingCpu0.exec_context.thread_0.statExecutedInstType::total   1463577666                       # Class of executed instruction. (Count)
system.timingCpu0.mmu.dtb.rdAccesses        330067477                       # TLB accesses on read requests (Count)
system.timingCpu0.mmu.dtb.wrAccesses          9751140                       # TLB accesses on write requests (Count)
system.timingCpu0.mmu.dtb.rdMisses           40847702                       # TLB misses on read requests (Count)
system.timingCpu0.mmu.dtb.wrMisses              11842                       # TLB misses on write requests (Count)
system.timingCpu0.mmu.dtb.walker.power_state.pwrStateResidencyTicks::UNDEFINED 161956989371251                       # Cumulative time (in ticks) in various power states (Tick)
system.timingCpu0.mmu.itb.rdAccesses                0                       # TLB accesses on read requests (Count)
system.timingCpu0.mmu.itb.wrAccesses       1051194752                       # TLB accesses on write requests (Count)
system.timingCpu0.mmu.itb.rdMisses                  0                       # TLB misses on read requests (Count)
system.timingCpu0.mmu.itb.wrMisses               8970                       # TLB misses on write requests (Count)
system.timingCpu0.mmu.itb.walker.power_state.pwrStateResidencyTicks::UNDEFINED 161956989371251                       # Cumulative time (in ticks) in various power states (Tick)
system.timingCpu0.power_state.numTransitions            2                       # Number of power state transitions (Count)
system.timingCpu0.power_state.ticksClkGated::samples            1                       # Distribution of time spent in the clock gated state (Tick)
system.timingCpu0.power_state.ticksClkGated::mean    188052500                       # Distribution of time spent in the clock gated state (Tick)
system.timingCpu0.power_state.ticksClkGated::1000-5e+10            1    100.00%    100.00% # Distribution of time spent in the clock gated state (Tick)
system.timingCpu0.power_state.ticksClkGated::min_value    188052500                       # Distribution of time spent in the clock gated state (Tick)
system.timingCpu0.power_state.ticksClkGated::max_value    188052500                       # Distribution of time spent in the clock gated state (Tick)
system.timingCpu0.power_state.ticksClkGated::total            1                       # Distribution of time spent in the clock gated state (Tick)
system.timingCpu0.power_state.pwrStateResidencyTicks::ON 2004076040001                       # Cumulative time (in ticks) in various power states (Tick)
system.timingCpu0.power_state.pwrStateResidencyTicks::CLK_GATED    188052500                       # Cumulative time (in ticks) in various power states (Tick)
system.timingCpu0.power_state.pwrStateResidencyTicks::OFF 159952725278750                       # Cumulative time (in ticks) in various power states (Tick)
system.timingCpu0.thread_0.numInsts                 0                       # Number of Instructions committed (Count)
system.timingCpu0.thread_0.numOps                   0                       # Number of Ops committed (Count)
system.timingCpu0.thread_0.numMemRefs               0                       # Number of Memory References (Count)
system.timingCpu1.numCycles                8022705258                       # Number of cpu cycles simulated (Cycle)
system.timingCpu1.numWorkItemsStarted               0                       # Number of work items this cpu started (Count)
system.timingCpu1.numWorkItemsCompleted             0                       # Number of work items this cpu completed (Count)
system.timingCpu1.exec_context.thread_0.numInsts    767822777                       # Number of instructions committed (Count)
system.timingCpu1.exec_context.thread_0.numOps   1487958608                       # Number of ops (including micro ops) committed (Count)
system.timingCpu1.exec_context.thread_0.numIntAluAccesses   1289429847                       # Number of integer alu accesses (Count)
system.timingCpu1.exec_context.thread_0.numFpAluAccesses    338556331                       # Number of float alu accesses (Count)
system.timingCpu1.exec_context.thread_0.numVecAluAccesses            0                       # Number of vector alu accesses (Count)
system.timingCpu1.exec_context.thread_0.numCallsReturns       462896                       # Number of times a function call or return occured (Count)
system.timingCpu1.exec_context.thread_0.numCondCtrlInsts    144093275                       # Number of instructions that are conditional controls (Count)
system.timingCpu1.exec_context.thread_0.numIntInsts   1289429847                       # Number of integer instructions (Count)
system.timingCpu1.exec_context.thread_0.numFpInsts    338556331                       # Number of float instructions (Count)
system.timingCpu1.exec_context.thread_0.numVecInsts            0                       # Number of vector instructions (Count)
system.timingCpu1.exec_context.thread_0.numIntRegReads   1459891286                       # Number of times the integer registers were read (Count)
system.timingCpu1.exec_context.thread_0.numIntRegWrites    852134208                       # Number of times the integer registers were written (Count)
system.timingCpu1.exec_context.thread_0.numFpRegReads    509315301                       # Number of times the floating registers were read (Count)
system.timingCpu1.exec_context.thread_0.numFpRegWrites    330280301                       # Number of times the floating registers were written (Count)
system.timingCpu1.exec_context.thread_0.numVecRegReads            0                       # Number of times the vector registers were read (Count)
system.timingCpu1.exec_context.thread_0.numVecRegWrites            0                       # Number of times the vector registers were written (Count)
system.timingCpu1.exec_context.thread_0.numVecPredRegReads            0                       # Number of times the predicate registers were read (Count)
system.timingCpu1.exec_context.thread_0.numVecPredRegWrites            0                       # Number of times the predicate registers were written (Count)
system.timingCpu1.exec_context.thread_0.numCCRegReads    726718347                       # Number of times the CC registers were read (Count)
system.timingCpu1.exec_context.thread_0.numCCRegWrites    577216224                       # Number of times the CC registers were written (Count)
system.timingCpu1.exec_context.thread_0.numMiscRegReads    585404025                       # Number of times the Misc registers were read (Count)
system.timingCpu1.exec_context.thread_0.numMiscRegWrites        72063                       # Number of times the Misc registers were written (Count)
system.timingCpu1.exec_context.thread_0.numMemRefs    292391542                       # Number of memory refs (Count)
system.timingCpu1.exec_context.thread_0.numLoadInsts    283105503                       # Number of load instructions (Count)
system.timingCpu1.exec_context.thread_0.numStoreInsts      9286039                       # Number of store instructions (Count)
system.timingCpu1.exec_context.thread_0.numIdleCycles 9377984.998822                       # Number of idle cycles (Cycle)
system.timingCpu1.exec_context.thread_0.numBusyCycles 8013327273.001178                       # Number of busy cycles (Cycle)
system.timingCpu1.exec_context.thread_0.notIdleFraction     0.998831                       # Percentage of non-idle cycles (Ratio)
system.timingCpu1.exec_context.thread_0.idleFraction     0.001169                       # Percentage of idle cycles (Ratio)
system.timingCpu1.exec_context.thread_0.numBranches    146477922                       # Number of branches fetched (Count)
system.timingCpu1.exec_context.thread_0.statExecutedInstType::No_OpClass      2649177      0.18%      0.18% # Class of executed instruction. (Count)
system.timingCpu1.exec_context.thread_0.statExecutedInstType::IntAlu    996396413     66.96%     67.14% # Class of executed instruction. (Count)
system.timingCpu1.exec_context.thread_0.statExecutedInstType::IntMult        46896      0.00%     67.15% # Class of executed instruction. (Count)
system.timingCpu1.exec_context.thread_0.statExecutedInstType::IntDiv        97270      0.01%     67.15% # Class of executed instruction. (Count)
system.timingCpu1.exec_context.thread_0.statExecutedInstType::FloatAdd     16224495      1.09%     68.24% # Class of executed instruction. (Count)
system.timingCpu1.exec_context.thread_0.statExecutedInstType::FloatCmp            0      0.00%     68.24% # Class of executed instruction. (Count)
system.timingCpu1.exec_context.thread_0.statExecutedInstType::FloatCvt          192      0.00%     68.24% # Class of executed instruction. (Count)
system.timingCpu1.exec_context.thread_0.statExecutedInstType::FloatMult            0      0.00%     68.24% # Class of executed instruction. (Count)
system.timingCpu1.exec_context.thread_0.statExecutedInstType::FloatMultAcc            0      0.00%     68.24% # Class of executed instruction. (Count)
system.timingCpu1.exec_context.thread_0.statExecutedInstType::FloatDiv            0      0.00%     68.24% # Class of executed instruction. (Count)
system.timingCpu1.exec_context.thread_0.statExecutedInstType::FloatMisc            0      0.00%     68.24% # Class of executed instruction. (Count)
system.timingCpu1.exec_context.thread_0.statExecutedInstType::FloatSqrt            0      0.00%     68.24% # Class of executed instruction. (Count)
system.timingCpu1.exec_context.thread_0.statExecutedInstType::SimdAdd           18      0.00%     68.24% # Class of executed instruction. (Count)
system.timingCpu1.exec_context.thread_0.statExecutedInstType::SimdAddAcc            0      0.00%     68.24% # Class of executed instruction. (Count)
system.timingCpu1.exec_context.thread_0.statExecutedInstType::SimdAlu     24124042      1.62%     69.86% # Class of executed instruction. (Count)
system.timingCpu1.exec_context.thread_0.statExecutedInstType::SimdCmp            0      0.00%     69.86% # Class of executed instruction. (Count)
system.timingCpu1.exec_context.thread_0.statExecutedInstType::SimdCvt           36      0.00%     69.86% # Class of executed instruction. (Count)
system.timingCpu1.exec_context.thread_0.statExecutedInstType::SimdMisc      3705419      0.25%     70.11% # Class of executed instruction. (Count)
system.timingCpu1.exec_context.thread_0.statExecutedInstType::SimdMult            0      0.00%     70.11% # Class of executed instruction. (Count)
system.timingCpu1.exec_context.thread_0.statExecutedInstType::SimdMultAcc            0      0.00%     70.11% # Class of executed instruction. (Count)
system.timingCpu1.exec_context.thread_0.statExecutedInstType::SimdShift           16      0.00%     70.11% # Class of executed instruction. (Count)
system.timingCpu1.exec_context.thread_0.statExecutedInstType::SimdShiftAcc            0      0.00%     70.11% # Class of executed instruction. (Count)
system.timingCpu1.exec_context.thread_0.statExecutedInstType::SimdDiv            0      0.00%     70.11% # Class of executed instruction. (Count)
system.timingCpu1.exec_context.thread_0.statExecutedInstType::SimdSqrt            0      0.00%     70.11% # Class of executed instruction. (Count)
system.timingCpu1.exec_context.thread_0.statExecutedInstType::SimdFloatAdd    138162512      9.29%     79.40% # Class of executed instruction. (Count)
system.timingCpu1.exec_context.thread_0.statExecutedInstType::SimdFloatAlu            0      0.00%     79.40% # Class of executed instruction. (Count)
system.timingCpu1.exec_context.thread_0.statExecutedInstType::SimdFloatCmp            0      0.00%     79.40% # Class of executed instruction. (Count)
system.timingCpu1.exec_context.thread_0.statExecutedInstType::SimdFloatCvt      7883692      0.53%     79.93% # Class of executed instruction. (Count)
system.timingCpu1.exec_context.thread_0.statExecutedInstType::SimdFloatDiv      3705393      0.25%     80.18% # Class of executed instruction. (Count)
system.timingCpu1.exec_context.thread_0.statExecutedInstType::SimdFloatMisc            0      0.00%     80.18% # Class of executed instruction. (Count)
system.timingCpu1.exec_context.thread_0.statExecutedInstType::SimdFloatMult      2571495      0.17%     80.35% # Class of executed instruction. (Count)
system.timingCpu1.exec_context.thread_0.statExecutedInstType::SimdFloatMultAcc            0      0.00%     80.35% # Class of executed instruction. (Count)
system.timingCpu1.exec_context.thread_0.statExecutedInstType::SimdFloatSqrt            0      0.00%     80.35% # Class of executed instruction. (Count)
system.timingCpu1.exec_context.thread_0.statExecutedInstType::SimdReduceAdd            0      0.00%     80.35% # Class of executed instruction. (Count)
system.timingCpu1.exec_context.thread_0.statExecutedInstType::SimdReduceAlu            0      0.00%     80.35% # Class of executed instruction. (Count)
system.timingCpu1.exec_context.thread_0.statExecutedInstType::SimdReduceCmp            0      0.00%     80.35% # Class of executed instruction. (Count)
system.timingCpu1.exec_context.thread_0.statExecutedInstType::SimdFloatReduceAdd            0      0.00%     80.35% # Class of executed instruction. (Count)
system.timingCpu1.exec_context.thread_0.statExecutedInstType::SimdFloatReduceCmp            0      0.00%     80.35% # Class of executed instruction. (Count)
system.timingCpu1.exec_context.thread_0.statExecutedInstType::SimdAes            0      0.00%     80.35% # Class of executed instruction. (Count)
system.timingCpu1.exec_context.thread_0.statExecutedInstType::SimdAesMix            0      0.00%     80.35% # Class of executed instruction. (Count)
system.timingCpu1.exec_context.thread_0.statExecutedInstType::SimdSha1Hash            0      0.00%     80.35% # Class of executed instruction. (Count)
system.timingCpu1.exec_context.thread_0.statExecutedInstType::SimdSha1Hash2            0      0.00%     80.35% # Class of executed instruction. (Count)
system.timingCpu1.exec_context.thread_0.statExecutedInstType::SimdSha256Hash            0      0.00%     80.35% # Class of executed instruction. (Count)
system.timingCpu1.exec_context.thread_0.statExecutedInstType::SimdSha256Hash2            0      0.00%     80.35% # Class of executed instruction. (Count)
system.timingCpu1.exec_context.thread_0.statExecutedInstType::SimdShaSigma2            0      0.00%     80.35% # Class of executed instruction. (Count)
system.timingCpu1.exec_context.thread_0.statExecutedInstType::SimdShaSigma3            0      0.00%     80.35% # Class of executed instruction. (Count)
system.timingCpu1.exec_context.thread_0.statExecutedInstType::SimdPredAlu            0      0.00%     80.35% # Class of executed instruction. (Count)
system.timingCpu1.exec_context.thread_0.statExecutedInstType::MemRead    149202302     10.03%     90.38% # Class of executed instruction. (Count)
system.timingCpu1.exec_context.thread_0.statExecutedInstType::MemWrite      1010227      0.07%     90.44% # Class of executed instruction. (Count)
system.timingCpu1.exec_context.thread_0.statExecutedInstType::FloatMemRead    133903201      9.00%     99.44% # Class of executed instruction. (Count)
system.timingCpu1.exec_context.thread_0.statExecutedInstType::FloatMemWrite      8275812      0.56%    100.00% # Class of executed instruction. (Count)
system.timingCpu1.exec_context.thread_0.statExecutedInstType::IprAccess            0      0.00%    100.00% # Class of executed instruction. (Count)
system.timingCpu1.exec_context.thread_0.statExecutedInstType::InstPrefetch            0      0.00%    100.00% # Class of executed instruction. (Count)
system.timingCpu1.exec_context.thread_0.statExecutedInstType::total   1487958608                       # Class of executed instruction. (Count)
system.timingCpu1.mmu.dtb.rdAccesses        331656316                       # TLB accesses on read requests (Count)
system.timingCpu1.mmu.dtb.wrAccesses          9355313                       # TLB accesses on write requests (Count)
system.timingCpu1.mmu.dtb.rdMisses           40566687                       # TLB misses on read requests (Count)
system.timingCpu1.mmu.dtb.wrMisses              69672                       # TLB misses on write requests (Count)
system.timingCpu1.mmu.dtb.walker.power_state.pwrStateResidencyTicks::UNDEFINED 161956989371251                       # Cumulative time (in ticks) in various power states (Tick)
system.timingCpu1.mmu.itb.rdAccesses                0                       # TLB accesses on read requests (Count)
system.timingCpu1.mmu.itb.wrAccesses       1068393030                       # TLB accesses on write requests (Count)
system.timingCpu1.mmu.itb.rdMisses                  0                       # TLB misses on read requests (Count)
system.timingCpu1.mmu.itb.wrMisses               7861                       # TLB misses on write requests (Count)
system.timingCpu1.mmu.itb.walker.power_state.pwrStateResidencyTicks::UNDEFINED 161956989371251                       # Cumulative time (in ticks) in various power states (Tick)
system.timingCpu1.power_state.numTransitions           16                       # Number of power state transitions (Count)
system.timingCpu1.power_state.ticksClkGated::samples            8                       # Distribution of time spent in the clock gated state (Tick)
system.timingCpu1.power_state.ticksClkGated::mean 293062031.250000                       # Distribution of time spent in the clock gated state (Tick)
system.timingCpu1.power_state.ticksClkGated::stdev 105036956.269604                       # Distribution of time spent in the clock gated state (Tick)
system.timingCpu1.power_state.ticksClkGated::1000-5e+10            8    100.00%    100.00% # Distribution of time spent in the clock gated state (Tick)
system.timingCpu1.power_state.ticksClkGated::min_value    106281000                       # Distribution of time spent in the clock gated state (Tick)
system.timingCpu1.power_state.ticksClkGated::max_value    473912000                       # Distribution of time spent in the clock gated state (Tick)
system.timingCpu1.power_state.ticksClkGated::total            8                       # Distribution of time spent in the clock gated state (Tick)
system.timingCpu1.power_state.pwrStateResidencyTicks::ON 1704085038001                       # Cumulative time (in ticks) in various power states (Tick)
system.timingCpu1.power_state.pwrStateResidencyTicks::CLK_GATED   2344496250                       # Cumulative time (in ticks) in various power states (Tick)
system.timingCpu1.power_state.pwrStateResidencyTicks::OFF 160250559837000                       # Cumulative time (in ticks) in various power states (Tick)
system.timingCpu1.thread_0.numInsts                 0                       # Number of Instructions committed (Count)
system.timingCpu1.thread_0.numOps                   0                       # Number of Ops committed (Count)
system.timingCpu1.thread_0.numMemRefs               0                       # Number of Memory References (Count)
system.workload.inst.arm                            0                       # number of arm instructions executed (Count)
system.workload.inst.quiesce                        0                       # number of quiesce instructions executed (Count)

---------- End Simulation Statistics   ----------
