
---------- Begin Simulation Statistics ----------
simSeconds                                          5                       # Number of seconds simulated (Second)
simTicks                                 5000000000000                       # Number of ticks simulated (Tick)
finalTick                                30657876838750                       # Number of ticks from beginning of simulation (restored from checkpoints and never reset) (Tick)
simFreq                                  1000000000000                       # The number of ticks per simulated second ((Tick/Second))
hostSeconds                                  18487.83                       # Real time elapsed on the host (Second)
hostTickRate                                270448146                       # The number of ticks simulated per host second (ticks/s) ((Tick/Second))
hostMemory                                   13887000                       # Number of bytes of host memory used (Byte)
simInsts                                  39283279536                       # Number of instructions simulated (Count)
simOps                                    42427147234                       # Number of ops (including micro ops) simulated (Count)
hostInstRate                                  2124818                       # Simulator instruction rate (inst/s) ((Count/Second))
hostOpRate                                    2294869                       # Simulator op (including micro ops) rate (op/s) ((Count/Second))
system.atomicCpu0.numCycles                         0                       # Number of cpu cycles simulated (Cycle)
system.atomicCpu0.numWorkItemsStarted               0                       # Number of work items this cpu started (Count)
system.atomicCpu0.numWorkItemsCompleted             0                       # Number of work items this cpu completed (Count)
system.atomicCpu0.exec_context.thread_0.numInsts            0                       # Number of instructions committed (Count)
system.atomicCpu0.exec_context.thread_0.numOps            0                       # Number of ops (including micro ops) committed (Count)
system.atomicCpu0.exec_context.thread_0.numIntAluAccesses            0                       # Number of integer alu accesses (Count)
system.atomicCpu0.exec_context.thread_0.numFpAluAccesses            0                       # Number of float alu accesses (Count)
system.atomicCpu0.exec_context.thread_0.numVecAluAccesses            0                       # Number of vector alu accesses (Count)
system.atomicCpu0.exec_context.thread_0.numCallsReturns            0                       # Number of times a function call or return occured (Count)
system.atomicCpu0.exec_context.thread_0.numCondCtrlInsts            0                       # Number of instructions that are conditional controls (Count)
system.atomicCpu0.exec_context.thread_0.numIntInsts            0                       # Number of integer instructions (Count)
system.atomicCpu0.exec_context.thread_0.numFpInsts            0                       # Number of float instructions (Count)
system.atomicCpu0.exec_context.thread_0.numVecInsts            0                       # Number of vector instructions (Count)
system.atomicCpu0.exec_context.thread_0.numIntRegReads            0                       # Number of times the integer registers were read (Count)
system.atomicCpu0.exec_context.thread_0.numIntRegWrites            0                       # Number of times the integer registers were written (Count)
system.atomicCpu0.exec_context.thread_0.numFpRegReads            0                       # Number of times the floating registers were read (Count)
system.atomicCpu0.exec_context.thread_0.numFpRegWrites            0                       # Number of times the floating registers were written (Count)
system.atomicCpu0.exec_context.thread_0.numVecRegReads            0                       # Number of times the vector registers were read (Count)
system.atomicCpu0.exec_context.thread_0.numVecRegWrites            0                       # Number of times the vector registers were written (Count)
system.atomicCpu0.exec_context.thread_0.numVecPredRegReads            0                       # Number of times the predicate registers were read (Count)
system.atomicCpu0.exec_context.thread_0.numVecPredRegWrites            0                       # Number of times the predicate registers were written (Count)
system.atomicCpu0.exec_context.thread_0.numMiscRegReads            0                       # Number of times the Misc registers were read (Count)
system.atomicCpu0.exec_context.thread_0.numMiscRegWrites            0                       # Number of times the Misc registers were written (Count)
system.atomicCpu0.exec_context.thread_0.numMemRefs            0                       # Number of memory refs (Count)
system.atomicCpu0.exec_context.thread_0.numLoadInsts            0                       # Number of load instructions (Count)
system.atomicCpu0.exec_context.thread_0.numStoreInsts            0                       # Number of store instructions (Count)
system.atomicCpu0.exec_context.thread_0.numIdleCycles            0                       # Number of idle cycles (Cycle)
system.atomicCpu0.exec_context.thread_0.numBusyCycles            0                       # Number of busy cycles (Cycle)
system.atomicCpu0.exec_context.thread_0.notIdleFraction            0                       # Percentage of non-idle cycles (Ratio)
system.atomicCpu0.exec_context.thread_0.idleFraction            1                       # Percentage of idle cycles (Ratio)
system.atomicCpu0.exec_context.thread_0.statExecutedInstType::No_OpClass            0                       # Class of executed instruction. (Count)
system.atomicCpu0.exec_context.thread_0.statExecutedInstType::IntAlu            0                       # Class of executed instruction. (Count)
system.atomicCpu0.exec_context.thread_0.statExecutedInstType::IntMult            0                       # Class of executed instruction. (Count)
system.atomicCpu0.exec_context.thread_0.statExecutedInstType::IntDiv            0                       # Class of executed instruction. (Count)
system.atomicCpu0.exec_context.thread_0.statExecutedInstType::FloatAdd            0                       # Class of executed instruction. (Count)
system.atomicCpu0.exec_context.thread_0.statExecutedInstType::FloatCmp            0                       # Class of executed instruction. (Count)
system.atomicCpu0.exec_context.thread_0.statExecutedInstType::FloatCvt            0                       # Class of executed instruction. (Count)
system.atomicCpu0.exec_context.thread_0.statExecutedInstType::FloatMult            0                       # Class of executed instruction. (Count)
system.atomicCpu0.exec_context.thread_0.statExecutedInstType::FloatMultAcc            0                       # Class of executed instruction. (Count)
system.atomicCpu0.exec_context.thread_0.statExecutedInstType::FloatDiv            0                       # Class of executed instruction. (Count)
system.atomicCpu0.exec_context.thread_0.statExecutedInstType::FloatMisc            0                       # Class of executed instruction. (Count)
system.atomicCpu0.exec_context.thread_0.statExecutedInstType::FloatSqrt            0                       # Class of executed instruction. (Count)
system.atomicCpu0.exec_context.thread_0.statExecutedInstType::SimdAdd            0                       # Class of executed instruction. (Count)
system.atomicCpu0.exec_context.thread_0.statExecutedInstType::SimdAddAcc            0                       # Class of executed instruction. (Count)
system.atomicCpu0.exec_context.thread_0.statExecutedInstType::SimdAlu            0                       # Class of executed instruction. (Count)
system.atomicCpu0.exec_context.thread_0.statExecutedInstType::SimdCmp            0                       # Class of executed instruction. (Count)
system.atomicCpu0.exec_context.thread_0.statExecutedInstType::SimdCvt            0                       # Class of executed instruction. (Count)
system.atomicCpu0.exec_context.thread_0.statExecutedInstType::SimdMisc            0                       # Class of executed instruction. (Count)
system.atomicCpu0.exec_context.thread_0.statExecutedInstType::SimdMult            0                       # Class of executed instruction. (Count)
system.atomicCpu0.exec_context.thread_0.statExecutedInstType::SimdMultAcc            0                       # Class of executed instruction. (Count)
system.atomicCpu0.exec_context.thread_0.statExecutedInstType::SimdShift            0                       # Class of executed instruction. (Count)
system.atomicCpu0.exec_context.thread_0.statExecutedInstType::SimdShiftAcc            0                       # Class of executed instruction. (Count)
system.atomicCpu0.exec_context.thread_0.statExecutedInstType::SimdDiv            0                       # Class of executed instruction. (Count)
system.atomicCpu0.exec_context.thread_0.statExecutedInstType::SimdSqrt            0                       # Class of executed instruction. (Count)
system.atomicCpu0.exec_context.thread_0.statExecutedInstType::SimdFloatAdd            0                       # Class of executed instruction. (Count)
system.atomicCpu0.exec_context.thread_0.statExecutedInstType::SimdFloatAlu            0                       # Class of executed instruction. (Count)
system.atomicCpu0.exec_context.thread_0.statExecutedInstType::SimdFloatCmp            0                       # Class of executed instruction. (Count)
system.atomicCpu0.exec_context.thread_0.statExecutedInstType::SimdFloatCvt            0                       # Class of executed instruction. (Count)
system.atomicCpu0.exec_context.thread_0.statExecutedInstType::SimdFloatDiv            0                       # Class of executed instruction. (Count)
system.atomicCpu0.exec_context.thread_0.statExecutedInstType::SimdFloatMisc            0                       # Class of executed instruction. (Count)
system.atomicCpu0.exec_context.thread_0.statExecutedInstType::SimdFloatMult            0                       # Class of executed instruction. (Count)
system.atomicCpu0.exec_context.thread_0.statExecutedInstType::SimdFloatMultAcc            0                       # Class of executed instruction. (Count)
system.atomicCpu0.exec_context.thread_0.statExecutedInstType::SimdFloatSqrt            0                       # Class of executed instruction. (Count)
system.atomicCpu0.exec_context.thread_0.statExecutedInstType::SimdReduceAdd            0                       # Class of executed instruction. (Count)
system.atomicCpu0.exec_context.thread_0.statExecutedInstType::SimdReduceAlu            0                       # Class of executed instruction. (Count)
system.atomicCpu0.exec_context.thread_0.statExecutedInstType::SimdReduceCmp            0                       # Class of executed instruction. (Count)
system.atomicCpu0.exec_context.thread_0.statExecutedInstType::SimdFloatReduceAdd            0                       # Class of executed instruction. (Count)
system.atomicCpu0.exec_context.thread_0.statExecutedInstType::SimdFloatReduceCmp            0                       # Class of executed instruction. (Count)
system.atomicCpu0.exec_context.thread_0.statExecutedInstType::SimdAes            0                       # Class of executed instruction. (Count)
system.atomicCpu0.exec_context.thread_0.statExecutedInstType::SimdAesMix            0                       # Class of executed instruction. (Count)
system.atomicCpu0.exec_context.thread_0.statExecutedInstType::SimdSha1Hash            0                       # Class of executed instruction. (Count)
system.atomicCpu0.exec_context.thread_0.statExecutedInstType::SimdSha1Hash2            0                       # Class of executed instruction. (Count)
system.atomicCpu0.exec_context.thread_0.statExecutedInstType::SimdSha256Hash            0                       # Class of executed instruction. (Count)
system.atomicCpu0.exec_context.thread_0.statExecutedInstType::SimdSha256Hash2            0                       # Class of executed instruction. (Count)
system.atomicCpu0.exec_context.thread_0.statExecutedInstType::SimdShaSigma2            0                       # Class of executed instruction. (Count)
system.atomicCpu0.exec_context.thread_0.statExecutedInstType::SimdShaSigma3            0                       # Class of executed instruction. (Count)
system.atomicCpu0.exec_context.thread_0.statExecutedInstType::SimdPredAlu            0                       # Class of executed instruction. (Count)
system.atomicCpu0.exec_context.thread_0.statExecutedInstType::MemRead            0                       # Class of executed instruction. (Count)
system.atomicCpu0.exec_context.thread_0.statExecutedInstType::MemWrite            0                       # Class of executed instruction. (Count)
system.atomicCpu0.exec_context.thread_0.statExecutedInstType::FloatMemRead            0                       # Class of executed instruction. (Count)
system.atomicCpu0.exec_context.thread_0.statExecutedInstType::FloatMemWrite            0                       # Class of executed instruction. (Count)
system.atomicCpu0.exec_context.thread_0.statExecutedInstType::IprAccess            0                       # Class of executed instruction. (Count)
system.atomicCpu0.exec_context.thread_0.statExecutedInstType::InstPrefetch            0                       # Class of executed instruction. (Count)
system.atomicCpu0.exec_context.thread_0.statExecutedInstType::total            0                       # Class of executed instruction. (Count)
system.atomicCpu0.mmu.dtb.rdAccesses                0                       # TLB accesses on read requests (Count)
system.atomicCpu0.mmu.dtb.wrAccesses                0                       # TLB accesses on write requests (Count)
system.atomicCpu0.mmu.dtb.rdMisses                  0                       # TLB misses on read requests (Count)
system.atomicCpu0.mmu.dtb.wrMisses                  0                       # TLB misses on write requests (Count)
system.atomicCpu0.mmu.dtb.walker.power_state.pwrStateResidencyTicks::UNDEFINED 30657876838750                       # Cumulative time (in ticks) in various power states (Tick)
system.atomicCpu0.mmu.itb.rdAccesses                0                       # TLB accesses on read requests (Count)
system.atomicCpu0.mmu.itb.wrAccesses                0                       # TLB accesses on write requests (Count)
system.atomicCpu0.mmu.itb.rdMisses                  0                       # TLB misses on read requests (Count)
system.atomicCpu0.mmu.itb.wrMisses                  0                       # TLB misses on write requests (Count)
system.atomicCpu0.mmu.itb.walker.power_state.pwrStateResidencyTicks::UNDEFINED 30657876838750                       # Cumulative time (in ticks) in various power states (Tick)
system.atomicCpu0.power_state.pwrStateResidencyTicks::OFF 30657876838750                       # Cumulative time (in ticks) in various power states (Tick)
system.atomicCpu0.thread_0.numInsts                 0                       # Number of Instructions committed (Count)
system.atomicCpu0.thread_0.numOps                   0                       # Number of Ops committed (Count)
system.atomicCpu0.thread_0.numMemRefs               0                       # Number of Memory References (Count)
system.atomicCpu1.numCycles                         0                       # Number of cpu cycles simulated (Cycle)
system.atomicCpu1.numWorkItemsStarted               0                       # Number of work items this cpu started (Count)
system.atomicCpu1.numWorkItemsCompleted             0                       # Number of work items this cpu completed (Count)
system.atomicCpu1.exec_context.thread_0.numInsts            0                       # Number of instructions committed (Count)
system.atomicCpu1.exec_context.thread_0.numOps            0                       # Number of ops (including micro ops) committed (Count)
system.atomicCpu1.exec_context.thread_0.numIntAluAccesses            0                       # Number of integer alu accesses (Count)
system.atomicCpu1.exec_context.thread_0.numFpAluAccesses            0                       # Number of float alu accesses (Count)
system.atomicCpu1.exec_context.thread_0.numVecAluAccesses            0                       # Number of vector alu accesses (Count)
system.atomicCpu1.exec_context.thread_0.numCallsReturns            0                       # Number of times a function call or return occured (Count)
system.atomicCpu1.exec_context.thread_0.numCondCtrlInsts            0                       # Number of instructions that are conditional controls (Count)
system.atomicCpu1.exec_context.thread_0.numIntInsts            0                       # Number of integer instructions (Count)
system.atomicCpu1.exec_context.thread_0.numFpInsts            0                       # Number of float instructions (Count)
system.atomicCpu1.exec_context.thread_0.numVecInsts            0                       # Number of vector instructions (Count)
system.atomicCpu1.exec_context.thread_0.numIntRegReads            0                       # Number of times the integer registers were read (Count)
system.atomicCpu1.exec_context.thread_0.numIntRegWrites            0                       # Number of times the integer registers were written (Count)
system.atomicCpu1.exec_context.thread_0.numFpRegReads            0                       # Number of times the floating registers were read (Count)
system.atomicCpu1.exec_context.thread_0.numFpRegWrites            0                       # Number of times the floating registers were written (Count)
system.atomicCpu1.exec_context.thread_0.numVecRegReads            0                       # Number of times the vector registers were read (Count)
system.atomicCpu1.exec_context.thread_0.numVecRegWrites            0                       # Number of times the vector registers were written (Count)
system.atomicCpu1.exec_context.thread_0.numVecPredRegReads            0                       # Number of times the predicate registers were read (Count)
system.atomicCpu1.exec_context.thread_0.numVecPredRegWrites            0                       # Number of times the predicate registers were written (Count)
system.atomicCpu1.exec_context.thread_0.numMiscRegReads            0                       # Number of times the Misc registers were read (Count)
system.atomicCpu1.exec_context.thread_0.numMiscRegWrites            0                       # Number of times the Misc registers were written (Count)
system.atomicCpu1.exec_context.thread_0.numMemRefs            0                       # Number of memory refs (Count)
system.atomicCpu1.exec_context.thread_0.numLoadInsts            0                       # Number of load instructions (Count)
system.atomicCpu1.exec_context.thread_0.numStoreInsts            0                       # Number of store instructions (Count)
system.atomicCpu1.exec_context.thread_0.numIdleCycles            0                       # Number of idle cycles (Cycle)
system.atomicCpu1.exec_context.thread_0.numBusyCycles            0                       # Number of busy cycles (Cycle)
system.atomicCpu1.exec_context.thread_0.notIdleFraction            0                       # Percentage of non-idle cycles (Ratio)
system.atomicCpu1.exec_context.thread_0.idleFraction            1                       # Percentage of idle cycles (Ratio)
system.atomicCpu1.exec_context.thread_0.statExecutedInstType::No_OpClass            0                       # Class of executed instruction. (Count)
system.atomicCpu1.exec_context.thread_0.statExecutedInstType::IntAlu            0                       # Class of executed instruction. (Count)
system.atomicCpu1.exec_context.thread_0.statExecutedInstType::IntMult            0                       # Class of executed instruction. (Count)
system.atomicCpu1.exec_context.thread_0.statExecutedInstType::IntDiv            0                       # Class of executed instruction. (Count)
system.atomicCpu1.exec_context.thread_0.statExecutedInstType::FloatAdd            0                       # Class of executed instruction. (Count)
system.atomicCpu1.exec_context.thread_0.statExecutedInstType::FloatCmp            0                       # Class of executed instruction. (Count)
system.atomicCpu1.exec_context.thread_0.statExecutedInstType::FloatCvt            0                       # Class of executed instruction. (Count)
system.atomicCpu1.exec_context.thread_0.statExecutedInstType::FloatMult            0                       # Class of executed instruction. (Count)
system.atomicCpu1.exec_context.thread_0.statExecutedInstType::FloatMultAcc            0                       # Class of executed instruction. (Count)
system.atomicCpu1.exec_context.thread_0.statExecutedInstType::FloatDiv            0                       # Class of executed instruction. (Count)
system.atomicCpu1.exec_context.thread_0.statExecutedInstType::FloatMisc            0                       # Class of executed instruction. (Count)
system.atomicCpu1.exec_context.thread_0.statExecutedInstType::FloatSqrt            0                       # Class of executed instruction. (Count)
system.atomicCpu1.exec_context.thread_0.statExecutedInstType::SimdAdd            0                       # Class of executed instruction. (Count)
system.atomicCpu1.exec_context.thread_0.statExecutedInstType::SimdAddAcc            0                       # Class of executed instruction. (Count)
system.atomicCpu1.exec_context.thread_0.statExecutedInstType::SimdAlu            0                       # Class of executed instruction. (Count)
system.atomicCpu1.exec_context.thread_0.statExecutedInstType::SimdCmp            0                       # Class of executed instruction. (Count)
system.atomicCpu1.exec_context.thread_0.statExecutedInstType::SimdCvt            0                       # Class of executed instruction. (Count)
system.atomicCpu1.exec_context.thread_0.statExecutedInstType::SimdMisc            0                       # Class of executed instruction. (Count)
system.atomicCpu1.exec_context.thread_0.statExecutedInstType::SimdMult            0                       # Class of executed instruction. (Count)
system.atomicCpu1.exec_context.thread_0.statExecutedInstType::SimdMultAcc            0                       # Class of executed instruction. (Count)
system.atomicCpu1.exec_context.thread_0.statExecutedInstType::SimdShift            0                       # Class of executed instruction. (Count)
system.atomicCpu1.exec_context.thread_0.statExecutedInstType::SimdShiftAcc            0                       # Class of executed instruction. (Count)
system.atomicCpu1.exec_context.thread_0.statExecutedInstType::SimdDiv            0                       # Class of executed instruction. (Count)
system.atomicCpu1.exec_context.thread_0.statExecutedInstType::SimdSqrt            0                       # Class of executed instruction. (Count)
system.atomicCpu1.exec_context.thread_0.statExecutedInstType::SimdFloatAdd            0                       # Class of executed instruction. (Count)
system.atomicCpu1.exec_context.thread_0.statExecutedInstType::SimdFloatAlu            0                       # Class of executed instruction. (Count)
system.atomicCpu1.exec_context.thread_0.statExecutedInstType::SimdFloatCmp            0                       # Class of executed instruction. (Count)
system.atomicCpu1.exec_context.thread_0.statExecutedInstType::SimdFloatCvt            0                       # Class of executed instruction. (Count)
system.atomicCpu1.exec_context.thread_0.statExecutedInstType::SimdFloatDiv            0                       # Class of executed instruction. (Count)
system.atomicCpu1.exec_context.thread_0.statExecutedInstType::SimdFloatMisc            0                       # Class of executed instruction. (Count)
system.atomicCpu1.exec_context.thread_0.statExecutedInstType::SimdFloatMult            0                       # Class of executed instruction. (Count)
system.atomicCpu1.exec_context.thread_0.statExecutedInstType::SimdFloatMultAcc            0                       # Class of executed instruction. (Count)
system.atomicCpu1.exec_context.thread_0.statExecutedInstType::SimdFloatSqrt            0                       # Class of executed instruction. (Count)
system.atomicCpu1.exec_context.thread_0.statExecutedInstType::SimdReduceAdd            0                       # Class of executed instruction. (Count)
system.atomicCpu1.exec_context.thread_0.statExecutedInstType::SimdReduceAlu            0                       # Class of executed instruction. (Count)
system.atomicCpu1.exec_context.thread_0.statExecutedInstType::SimdReduceCmp            0                       # Class of executed instruction. (Count)
system.atomicCpu1.exec_context.thread_0.statExecutedInstType::SimdFloatReduceAdd            0                       # Class of executed instruction. (Count)
system.atomicCpu1.exec_context.thread_0.statExecutedInstType::SimdFloatReduceCmp            0                       # Class of executed instruction. (Count)
system.atomicCpu1.exec_context.thread_0.statExecutedInstType::SimdAes            0                       # Class of executed instruction. (Count)
system.atomicCpu1.exec_context.thread_0.statExecutedInstType::SimdAesMix            0                       # Class of executed instruction. (Count)
system.atomicCpu1.exec_context.thread_0.statExecutedInstType::SimdSha1Hash            0                       # Class of executed instruction. (Count)
system.atomicCpu1.exec_context.thread_0.statExecutedInstType::SimdSha1Hash2            0                       # Class of executed instruction. (Count)
system.atomicCpu1.exec_context.thread_0.statExecutedInstType::SimdSha256Hash            0                       # Class of executed instruction. (Count)
system.atomicCpu1.exec_context.thread_0.statExecutedInstType::SimdSha256Hash2            0                       # Class of executed instruction. (Count)
system.atomicCpu1.exec_context.thread_0.statExecutedInstType::SimdShaSigma2            0                       # Class of executed instruction. (Count)
system.atomicCpu1.exec_context.thread_0.statExecutedInstType::SimdShaSigma3            0                       # Class of executed instruction. (Count)
system.atomicCpu1.exec_context.thread_0.statExecutedInstType::SimdPredAlu            0                       # Class of executed instruction. (Count)
system.atomicCpu1.exec_context.thread_0.statExecutedInstType::MemRead            0                       # Class of executed instruction. (Count)
system.atomicCpu1.exec_context.thread_0.statExecutedInstType::MemWrite            0                       # Class of executed instruction. (Count)
system.atomicCpu1.exec_context.thread_0.statExecutedInstType::FloatMemRead            0                       # Class of executed instruction. (Count)
system.atomicCpu1.exec_context.thread_0.statExecutedInstType::FloatMemWrite            0                       # Class of executed instruction. (Count)
system.atomicCpu1.exec_context.thread_0.statExecutedInstType::IprAccess            0                       # Class of executed instruction. (Count)
system.atomicCpu1.exec_context.thread_0.statExecutedInstType::InstPrefetch            0                       # Class of executed instruction. (Count)
system.atomicCpu1.exec_context.thread_0.statExecutedInstType::total            0                       # Class of executed instruction. (Count)
system.atomicCpu1.mmu.dtb.rdAccesses                0                       # TLB accesses on read requests (Count)
system.atomicCpu1.mmu.dtb.wrAccesses                0                       # TLB accesses on write requests (Count)
system.atomicCpu1.mmu.dtb.rdMisses                  0                       # TLB misses on read requests (Count)
system.atomicCpu1.mmu.dtb.wrMisses                  0                       # TLB misses on write requests (Count)
system.atomicCpu1.mmu.dtb.walker.power_state.pwrStateResidencyTicks::UNDEFINED 30657876838750                       # Cumulative time (in ticks) in various power states (Tick)
system.atomicCpu1.mmu.itb.rdAccesses                0                       # TLB accesses on read requests (Count)
system.atomicCpu1.mmu.itb.wrAccesses                0                       # TLB accesses on write requests (Count)
system.atomicCpu1.mmu.itb.rdMisses                  0                       # TLB misses on read requests (Count)
system.atomicCpu1.mmu.itb.wrMisses                  0                       # TLB misses on write requests (Count)
system.atomicCpu1.mmu.itb.walker.power_state.pwrStateResidencyTicks::UNDEFINED 30657876838750                       # Cumulative time (in ticks) in various power states (Tick)
system.atomicCpu1.power_state.pwrStateResidencyTicks::OFF 30657876838750                       # Cumulative time (in ticks) in various power states (Tick)
system.atomicCpu1.thread_0.numInsts                 0                       # Number of Instructions committed (Count)
system.atomicCpu1.thread_0.numOps                   0                       # Number of Ops committed (Count)
system.atomicCpu1.thread_0.numMemRefs               0                       # Number of Memory References (Count)
system.caches.delayHistogram::bucket_size          128                       # delay histogram for all message (Unspecified)
system.caches.delayHistogram::max_bucket         1279                       # delay histogram for all message (Unspecified)
system.caches.delayHistogram::samples       290543883                       # delay histogram for all message (Unspecified)
system.caches.delayHistogram::mean           0.254352                       # delay histogram for all message (Unspecified)
system.caches.delayHistogram::stdev          1.410665                       # delay histogram for all message (Unspecified)
system.caches.delayHistogram             |   290543873    100.00%    100.00% |           0      0.00%    100.00% |           2      0.00%    100.00% |           2      0.00%    100.00% |           2      0.00%    100.00% |           3      0.00%    100.00% |           1      0.00%    100.00% |           0      0.00%    100.00% |           0      0.00%    100.00% |           0      0.00%    100.00% # delay histogram for all message (Unspecified)
system.caches.delayHistogram::total         290543883                       # delay histogram for all message (Unspecified)
system.caches.m_outstandReqHistSeqr::bucket_size            1                       (Unspecified)
system.caches.m_outstandReqHistSeqr::max_bucket            9                       (Unspecified)
system.caches.m_outstandReqHistSeqr::samples   7732387084                       (Unspecified)
system.caches.m_outstandReqHistSeqr::mean            1                       (Unspecified)
system.caches.m_outstandReqHistSeqr::gmean            1                       (Unspecified)
system.caches.m_outstandReqHistSeqr      |           0      0.00%      0.00% |  7732387084    100.00%    100.00% |           0      0.00%    100.00% |           0      0.00%    100.00% |           0      0.00%    100.00% |           0      0.00%    100.00% |           0      0.00%    100.00% |           0      0.00%    100.00% |           0      0.00%    100.00% |           0      0.00%    100.00% (Unspecified)
system.caches.m_outstandReqHistSeqr::total   7732387084                       (Unspecified)
system.caches.m_latencyHistSeqr::bucket_size          512                       (Unspecified)
system.caches.m_latencyHistSeqr::max_bucket         5119                       (Unspecified)
system.caches.m_latencyHistSeqr::samples   7732387082                       (Unspecified)
system.caches.m_latencyHistSeqr::mean        4.172492                       (Unspecified)
system.caches.m_latencyHistSeqr::gmean       1.034510                       (Unspecified)
system.caches.m_latencyHistSeqr::stdev      47.669768                       (Unspecified)
system.caches.m_latencyHistSeqr          |  7715464845     99.78%     99.78% |    15409998      0.20%     99.98% |      340424      0.00%     99.98% |      991904      0.01%    100.00% |      176208      0.00%    100.00% |        3639      0.00%    100.00% |          61      0.00%    100.00% |           3      0.00%    100.00% |           0      0.00%    100.00% |           0      0.00%    100.00% (Unspecified)
system.caches.m_latencyHistSeqr::total     7732387082                       (Unspecified)
system.caches.m_hitLatencyHistSeqr::bucket_size            1                       (Unspecified)
system.caches.m_hitLatencyHistSeqr::max_bucket            9                       (Unspecified)
system.caches.m_hitLatencyHistSeqr::samples   7690479300                       (Unspecified)
system.caches.m_hitLatencyHistSeqr::mean            1                       (Unspecified)
system.caches.m_hitLatencyHistSeqr::gmean            1                       (Unspecified)
system.caches.m_hitLatencyHistSeqr       |           0      0.00%      0.00% |  7690479300    100.00%    100.00% |           0      0.00%    100.00% |           0      0.00%    100.00% |           0      0.00%    100.00% |           0      0.00%    100.00% |           0      0.00%    100.00% |           0      0.00%    100.00% |           0      0.00%    100.00% |           0      0.00%    100.00% (Unspecified)
system.caches.m_hitLatencyHistSeqr::total   7690479300                       (Unspecified)
system.caches.m_missLatencyHistSeqr::bucket_size          512                       (Unspecified)
system.caches.m_missLatencyHistSeqr::max_bucket         5119                       (Unspecified)
system.caches.m_missLatencyHistSeqr::samples     41907782                       (Unspecified)
system.caches.m_missLatencyHistSeqr::mean   586.355074                       (Unspecified)
system.caches.m_missLatencyHistSeqr::gmean   523.222607                       (Unspecified)
system.caches.m_missLatencyHistSeqr::stdev   280.173671                       (Unspecified)
system.caches.m_missLatencyHistSeqr      |    24985545     59.62%     59.62% |    15409998     36.77%     96.39% |      340424      0.81%     97.20% |      991904      2.37%     99.57% |      176208      0.42%     99.99% |        3639      0.01%    100.00% |          61      0.00%    100.00% |           3      0.00%    100.00% |           0      0.00%    100.00% |           0      0.00%    100.00% (Unspecified)
system.caches.m_missLatencyHistSeqr::total     41907782                       (Unspecified)
system.caches.delayVCHist.vnet_0::bucket_size          128                       # delay histogram for vnet_0 (Unspecified)
system.caches.delayVCHist.vnet_0::max_bucket         1279                       # delay histogram for vnet_0 (Unspecified)
system.caches.delayVCHist.vnet_0::samples    124649310                       # delay histogram for vnet_0 (Unspecified)
system.caches.delayVCHist.vnet_0::mean       0.592544                       # delay histogram for vnet_0 (Unspecified)
system.caches.delayVCHist.vnet_0::stdev      2.106254                       # delay histogram for vnet_0 (Unspecified)
system.caches.delayVCHist.vnet_0         |   124649300    100.00%    100.00% |           0      0.00%    100.00% |           2      0.00%    100.00% |           2      0.00%    100.00% |           2      0.00%    100.00% |           3      0.00%    100.00% |           1      0.00%    100.00% |           0      0.00%    100.00% |           0      0.00%    100.00% |           0      0.00%    100.00% # delay histogram for vnet_0 (Unspecified)
system.caches.delayVCHist.vnet_0::total     124649310                       # delay histogram for vnet_0 (Unspecified)
system.caches.delayVCHist.vnet_1::bucket_size            2                       # delay histogram for vnet_1 (Unspecified)
system.caches.delayVCHist.vnet_1::max_bucket           19                       # delay histogram for vnet_1 (Unspecified)
system.caches.delayVCHist.vnet_1::samples    165527953                       # delay histogram for vnet_1 (Unspecified)
system.caches.delayVCHist.vnet_1::mean       0.000242                       # delay histogram for vnet_1 (Unspecified)
system.caches.delayVCHist.vnet_1::stdev      0.036758                       # delay histogram for vnet_1 (Unspecified)
system.caches.delayVCHist.vnet_1         |   165519400     99.99%     99.99% |        2294      0.00%    100.00% |        2425      0.00%    100.00% |        2490      0.00%    100.00% |        1343      0.00%    100.00% |           1      0.00%    100.00% |           0      0.00%    100.00% |           0      0.00%    100.00% |           0      0.00%    100.00% |           0      0.00%    100.00% # delay histogram for vnet_1 (Unspecified)
system.caches.delayVCHist.vnet_1::total     165527953                       # delay histogram for vnet_1 (Unspecified)
system.caches.delayVCHist.vnet_2::bucket_size            1                       # delay histogram for vnet_2 (Unspecified)
system.caches.delayVCHist.vnet_2::max_bucket            9                       # delay histogram for vnet_2 (Unspecified)
system.caches.delayVCHist.vnet_2::samples       366620                       # delay histogram for vnet_2 (Unspecified)
system.caches.delayVCHist.vnet_2::mean       0.000104                       # delay histogram for vnet_2 (Unspecified)
system.caches.delayVCHist.vnet_2::stdev      0.014398                       # delay histogram for vnet_2 (Unspecified)
system.caches.delayVCHist.vnet_2         |      366601     99.99%     99.99% |           0      0.00%     99.99% |          19      0.01%    100.00% |           0      0.00%    100.00% |           0      0.00%    100.00% |           0      0.00%    100.00% |           0      0.00%    100.00% |           0      0.00%    100.00% |           0      0.00%    100.00% |           0      0.00%    100.00% # delay histogram for vnet_2 (Unspecified)
system.caches.delayVCHist.vnet_2::total        366620                       # delay histogram for vnet_2 (Unspecified)
system.caches.L1Cache_Controller.Load    |   550575753     50.04%     50.04% |   549735413     49.96%    100.00% (Unspecified)
system.caches.L1Cache_Controller.Load::total   1100311166                       (Unspecified)
system.caches.L1Cache_Controller.Ifetch  |18446744072210624512     50.00%     50.00% |18446744072207962112     50.00%    100.00% (Unspecified)
system.caches.L1Cache_Controller.Ifetch::total 36893488144418586624                       (Unspecified)
system.caches.L1Cache_Controller.Store   |   521874569     50.05%     50.05% |   520782834     49.95%    100.00% (Unspecified)
system.caches.L1Cache_Controller.Store::total   1042657403                       (Unspecified)
system.caches.L1Cache_Controller.Inv     |      115113     45.35%     45.35% |      138696     54.65%    100.00% (Unspecified)
system.caches.L1Cache_Controller.Inv::total       253809                       (Unspecified)
system.caches.L1Cache_Controller.L1_Replacement |    20824582     50.10%     50.10% |    20744198     49.90%    100.00% (Unspecified)
system.caches.L1Cache_Controller.L1_Replacement::total     41568780                       (Unspecified)
system.caches.L1Cache_Controller.Fwd_GETX |       33434     49.77%     49.77% |       33739     50.23%    100.00% (Unspecified)
system.caches.L1Cache_Controller.Fwd_GETX::total        67173                       (Unspecified)
system.caches.L1Cache_Controller.Fwd_GETS |       38524     84.41%     84.41% |        7114     15.59%    100.00% (Unspecified)
system.caches.L1Cache_Controller.Fwd_GETS::total        45638                       (Unspecified)
system.caches.L1Cache_Controller.Data    |        3267     99.73%     99.73% |           9      0.27%    100.00% (Unspecified)
system.caches.L1Cache_Controller.Data::total         3276                       (Unspecified)
system.caches.L1Cache_Controller.Data_Exclusive |    16075982     50.00%     50.00% |    16077841     50.00%    100.00% (Unspecified)
system.caches.L1Cache_Controller.Data_Exclusive::total     32153823                       (Unspecified)
system.caches.L1Cache_Controller.DataS_fromL1 |        7114     15.59%     15.59% |       38524     84.41%    100.00% (Unspecified)
system.caches.L1Cache_Controller.DataS_fromL1::total        45638                       (Unspecified)
system.caches.L1Cache_Controller.Data_all_Acks |     4881264     50.47%     50.47% |     4791184     49.53%    100.00% (Unspecified)
system.caches.L1Cache_Controller.Data_all_Acks::total      9672448                       (Unspecified)
system.caches.L1Cache_Controller.Ack     |       31888     97.82%     97.82% |         709      2.18%    100.00% (Unspecified)
system.caches.L1Cache_Controller.Ack::total        32597                       (Unspecified)
system.caches.L1Cache_Controller.Ack_all |       35155     98.00%     98.00% |         718      2.00%    100.00% (Unspecified)
system.caches.L1Cache_Controller.Ack_all::total        35873                       (Unspecified)
system.caches.L1Cache_Controller.WB_Ack  |    20626713     50.01%     50.01% |    20619019     49.99%    100.00% (Unspecified)
system.caches.L1Cache_Controller.WB_Ack::total     41245732                       (Unspecified)
system.caches.L1Cache_Controller.NP.Load |    16105378     50.00%     50.00% |    16103086     50.00%    100.00% (Unspecified)
system.caches.L1Cache_Controller.NP.Load::total     32208464                       (Unspecified)
system.caches.L1Cache_Controller.NP.Ifetch |      136951     66.81%     66.81% |       68027     33.19%    100.00% (Unspecified)
system.caches.L1Cache_Controller.NP.Ifetch::total       204978                       (Unspecified)
system.caches.L1Cache_Controller.NP.Store |     4590953     50.05%     50.05% |     4581789     49.95%    100.00% (Unspecified)
system.caches.L1Cache_Controller.NP.Store::total      9172742                       (Unspecified)
system.caches.L1Cache_Controller.NP.Inv  |        3043     39.81%     39.81% |        4601     60.19%    100.00% (Unspecified)
system.caches.L1Cache_Controller.NP.Inv::total         7644                       (Unspecified)
system.caches.L1Cache_Controller.I.Load  |       29410     32.37%     32.37% |       61438     67.63%    100.00% (Unspecified)
system.caches.L1Cache_Controller.I.Load::total        90848                       (Unspecified)
system.caches.L1Cache_Controller.I.Ifetch |       58310     54.41%     54.41% |       48851     45.59%    100.00% (Unspecified)
system.caches.L1Cache_Controller.I.Ifetch::total       107161                       (Unspecified)
system.caches.L1Cache_Controller.I.Store |       46626     51.24%     51.24% |       44364     48.76%    100.00% (Unspecified)
system.caches.L1Cache_Controller.I.Store::total        90990                       (Unspecified)
system.caches.L1Cache_Controller.I.L1_Replacement |       10752     45.93%     45.93% |       12655     54.07%    100.00% (Unspecified)
system.caches.L1Cache_Controller.I.L1_Replacement::total        23407                       (Unspecified)
system.caches.L1Cache_Controller.S.Load  |   152157610     49.95%     49.95% |   152446503     50.05%    100.00% (Unspecified)
system.caches.L1Cache_Controller.S.Load::total    304604113                       (Unspecified)
system.caches.L1Cache_Controller.S.Ifetch |18446744072210427904     50.00%     50.00% |18446744072207845376     50.00%    100.00% (Unspecified)
system.caches.L1Cache_Controller.S.Ifetch::total 36893488144418275328                       (Unspecified)
system.caches.L1Cache_Controller.S.Store |       31888     97.81%     97.81% |         713      2.19%    100.00% (Unspecified)
system.caches.L1Cache_Controller.S.Store::total        32601                       (Unspecified)
system.caches.L1Cache_Controller.S.Inv   |       73264     42.98%     42.98% |       97212     57.02%    100.00% (Unspecified)
system.caches.L1Cache_Controller.S.Inv::total       170476                       (Unspecified)
system.caches.L1Cache_Controller.S.L1_Replacement |      187117     62.45%     62.45% |      112524     37.55%    100.00% (Unspecified)
system.caches.L1Cache_Controller.S.L1_Replacement::total       299641                       (Unspecified)
system.caches.L1Cache_Controller.E.Load  |   308147898     50.01%     50.01% |   308040739     49.99%    100.00% (Unspecified)
system.caches.L1Cache_Controller.E.Load::total    616188637                       (Unspecified)
system.caches.L1Cache_Controller.E.Store |       24069     52.67%     52.67% |       21627     47.33%    100.00% (Unspecified)
system.caches.L1Cache_Controller.E.Store::total        45696                       (Unspecified)
system.caches.L1Cache_Controller.E.Inv   |       10331     50.87%     50.87% |        9977     49.13%    100.00% (Unspecified)
system.caches.L1Cache_Controller.E.Inv::total        20308                       (Unspecified)
system.caches.L1Cache_Controller.E.L1_Replacement |    16030086     50.00%     50.00% |    16031676     50.00%    100.00% (Unspecified)
system.caches.L1Cache_Controller.E.L1_Replacement::total     32061762                       (Unspecified)
system.caches.L1Cache_Controller.E.Fwd_GETX |           7      1.89%      1.89% |         363     98.11%    100.00% (Unspecified)
system.caches.L1Cache_Controller.E.Fwd_GETX::total          370                       (Unspecified)
system.caches.L1Cache_Controller.E.Fwd_GETS |        3636     36.46%     36.46% |        6336     63.54%    100.00% (Unspecified)
system.caches.L1Cache_Controller.E.Fwd_GETS::total         9972                       (Unspecified)
system.caches.L1Cache_Controller.M.Load  |    74135457     50.36%     50.36% |    73083647     49.64%    100.00% (Unspecified)
system.caches.L1Cache_Controller.M.Load::total    147219104                       (Unspecified)
system.caches.L1Cache_Controller.M.Store |   517181033     50.05%     50.05% |   516134341     49.95%    100.00% (Unspecified)
system.caches.L1Cache_Controller.M.Store::total   1033315374                       (Unspecified)
system.caches.L1Cache_Controller.M.Inv   |       28475     51.42%     51.42% |       26898     48.58%    100.00% (Unspecified)
system.caches.L1Cache_Controller.M.Inv::total        55373                       (Unspecified)
system.caches.L1Cache_Controller.M.L1_Replacement |     4596627     50.05%     50.05% |     4587343     49.95%    100.00% (Unspecified)
system.caches.L1Cache_Controller.M.L1_Replacement::total      9183970                       (Unspecified)
system.caches.L1Cache_Controller.M.Fwd_GETX |       33427     50.04%     50.04% |       33376     49.96%    100.00% (Unspecified)
system.caches.L1Cache_Controller.M.Fwd_GETX::total        66803                       (Unspecified)
system.caches.L1Cache_Controller.M.Fwd_GETS |       34888     97.82%     97.82% |         778      2.18%    100.00% (Unspecified)
system.caches.L1Cache_Controller.M.Fwd_GETS::total        35666                       (Unspecified)
system.caches.L1Cache_Controller.IS.Inv  |           0      0.00%      0.00% |           4    100.00%    100.00% (Unspecified)
system.caches.L1Cache_Controller.IS.Inv::total            4                       (Unspecified)
system.caches.L1Cache_Controller.IS.Data_Exclusive |    16075982     50.00%     50.00% |    16077841     50.00%    100.00% (Unspecified)
system.caches.L1Cache_Controller.IS.Data_Exclusive::total     32153823                       (Unspecified)
system.caches.L1Cache_Controller.IS.DataS_fromL1 |        7114     15.59%     15.59% |       38520     84.41%    100.00% (Unspecified)
system.caches.L1Cache_Controller.IS.DataS_fromL1::total        45634                       (Unspecified)
system.caches.L1Cache_Controller.IS.Data_all_Acks |      246952     59.94%     59.94% |      165036     40.06%    100.00% (Unspecified)
system.caches.L1Cache_Controller.IS.Data_all_Acks::total       411988                       (Unspecified)
system.caches.L1Cache_Controller.IM.Data |        3267     99.73%     99.73% |           9      0.27%    100.00% (Unspecified)
system.caches.L1Cache_Controller.IM.Data::total         3276                       (Unspecified)
system.caches.L1Cache_Controller.IM.Data_all_Acks |     4634312     50.04%     50.04% |     4626148     49.96%    100.00% (Unspecified)
system.caches.L1Cache_Controller.IM.Data_all_Acks::total      9260460                       (Unspecified)
system.caches.L1Cache_Controller.SM.Inv  |           0      0.00%      0.00% |           4    100.00%    100.00% (Unspecified)
system.caches.L1Cache_Controller.SM.Inv::total            4                       (Unspecified)
system.caches.L1Cache_Controller.SM.Ack  |       31888     97.82%     97.82% |         709      2.18%    100.00% (Unspecified)
system.caches.L1Cache_Controller.SM.Ack::total        32597                       (Unspecified)
system.caches.L1Cache_Controller.SM.Ack_all |       35155     98.00%     98.00% |         718      2.00%    100.00% (Unspecified)
system.caches.L1Cache_Controller.SM.Ack_all::total        35873                       (Unspecified)
system.caches.L1Cache_Controller.IS_I.DataS_fromL1 |           0      0.00%      0.00% |           4    100.00%    100.00% (Unspecified)
system.caches.L1Cache_Controller.IS_I.DataS_fromL1::total            4                       (Unspecified)
system.caches.L1Cache_Controller.M_I.WB_Ack |    20626713     50.01%     50.01% |    20619019     49.99%    100.00% (Unspecified)
system.caches.L1Cache_Controller.M_I.WB_Ack::total     41245732                       (Unspecified)
system.caches.Directory_Controller.Fetch     41103033      0.00%      0.00% (Unspecified)
system.caches.Directory_Controller.Data       8971869      0.00%      0.00% (Unspecified)
system.caches.Directory_Controller.Memory_Data     41103031      0.00%      0.00% (Unspecified)
system.caches.Directory_Controller.Memory_Ack      8971869      0.00%      0.00% (Unspecified)
system.caches.Directory_Controller.CleanReplacement     32000092      0.00%      0.00% (Unspecified)
system.caches.Directory_Controller.I.Fetch     41103033      0.00%      0.00% (Unspecified)
system.caches.Directory_Controller.M.Data      8971869      0.00%      0.00% (Unspecified)
system.caches.Directory_Controller.M.CleanReplacement     32000092      0.00%      0.00% (Unspecified)
system.caches.Directory_Controller.IM.Memory_Data     41103031      0.00%      0.00% (Unspecified)
system.caches.Directory_Controller.MI.Memory_Ack      8971869      0.00%      0.00% (Unspecified)
system.caches.L2Cache_Controller.L1_GET_INSTR |       16606      5.32%      5.32% |       51140     16.38%     21.69% |       45731     14.64%     36.34% |       12667      4.06%     40.39% |       30754      9.85%     50.24% |       45979     14.72%     64.97% |       53997     17.29%     82.26% |       55403     17.74%    100.00% (Unspecified)
system.caches.L2Cache_Controller.L1_GET_INSTR::total       312277                       (Unspecified)
system.caches.L2Cache_Controller.L1_GETS |     4058614     12.56%     12.56% |     4043254     12.51%     25.07% |     4030149     12.47%     37.55% |     4031340     12.48%     50.02% |     4030237     12.47%     62.49% |     4027411     12.46%     74.96% |     4058434     12.56%     87.52% |     4032918     12.48%    100.00% (Unspecified)
system.caches.L2Cache_Controller.L1_GETS::total     32312357                       (Unspecified)
system.caches.L2Cache_Controller.L1_GETX |     1156861     12.49%     12.49% |     1148347     12.40%     24.88% |     1145071     12.36%     37.24% |     1213936     13.10%     50.35% |     1146754     12.38%     62.73% |     1154375     12.46%     75.19% |     1148446     12.40%     87.58% |     1150191     12.42%    100.00% (Unspecified)
system.caches.L2Cache_Controller.L1_GETX::total      9263981                       (Unspecified)
system.caches.L2Cache_Controller.L1_UPGRADE |        6409     14.75%     14.75% |        4095      9.43%     24.18% |          21      0.05%     24.23% |        1019      2.35%     26.57% |          69      0.16%     26.73% |           2      0.00%     26.74% |       31736     73.05%     99.79% |          93      0.21%    100.00% (Unspecified)
system.caches.L2Cache_Controller.L1_UPGRADE::total        43444                       (Unspecified)
system.caches.L2Cache_Controller.L1_PUTX |     5159183     12.51%     12.51% |     5160637     12.51%     25.02% |     5148530     12.48%     37.50% |     5156773     12.50%     50.01% |     5154105     12.50%     62.50% |     5158190     12.51%     75.01% |     5153565     12.49%     87.50% |     5154749     12.50%    100.00% (Unspecified)
system.caches.L2Cache_Controller.L1_PUTX::total     41245732                       (Unspecified)
system.caches.L2Cache_Controller.L2_Replacement |     1114961     12.50%     12.50% |     1115011     12.50%     25.00% |     1115091     12.50%     37.49% |     1115486     12.50%     50.00% |     1115011     12.50%     62.50% |     1115392     12.50%     75.00% |     1115165     12.50%     87.50% |     1115437     12.50%    100.00% (Unspecified)
system.caches.L2Cache_Controller.L2_Replacement::total      8921554                       (Unspecified)
system.caches.L2Cache_Controller.L2_Replacement_clean |     4009502     12.51%     12.51% |     4008006     12.51%     25.02% |     4004498     12.49%     37.51% |     4004387     12.49%     50.00% |     4005801     12.50%     62.50% |     4006925     12.50%     75.00% |     4004288     12.49%     87.50% |     4007000     12.50%    100.00% (Unspecified)
system.caches.L2Cache_Controller.L2_Replacement_clean::total     32050407                       (Unspecified)
system.caches.L2Cache_Controller.Mem_Data |     5140846     12.51%     12.51% |     5139401     12.50%     25.01% |     5135972     12.50%     37.51% |     5136257     12.50%     50.00% |     5137196     12.50%     62.50% |     5138701     12.50%     75.00% |     5135837     12.50%     87.50% |     5138821     12.50%    100.00% (Unspecified)
system.caches.L2Cache_Controller.Mem_Data::total     41103031                       (Unspecified)
system.caches.L2Cache_Controller.Mem_Ack |     5124463     12.51%     12.51% |     5123017     12.50%     25.01% |     5119589     12.50%     37.51% |     5119873     12.50%     50.00% |     5120812     12.50%     62.50% |     5122317     12.50%     75.00% |     5119453     12.50%     87.50% |     5122437     12.50%    100.00% (Unspecified)
system.caches.L2Cache_Controller.Mem_Ack::total     40971961                       (Unspecified)
system.caches.L2Cache_Controller.WB_Data |       16631     18.27%     18.27% |       10136     11.13%     29.40% |        5532      6.08%     35.48% |        7986      8.77%     44.25% |        6493      7.13%     51.38% |        8450      9.28%     60.66% |       28208     30.98%     91.65% |        7603      8.35%    100.00% (Unspecified)
system.caches.L2Cache_Controller.WB_Data::total        91039                       (Unspecified)
system.caches.L2Cache_Controller.WB_Data_clean |        1901     19.06%     19.06% |        1318     13.22%     32.28% |        1483     14.87%     47.15% |        1065     10.68%     57.83% |        1098     11.01%     68.84% |         896      8.99%     77.83% |         878      8.80%     86.63% |        1333     13.37%    100.00% (Unspecified)
system.caches.L2Cache_Controller.WB_Data_clean::total         9972                       (Unspecified)
system.caches.L2Cache_Controller.Ack     |        9626     15.78%     15.78% |        7693     12.61%     28.40% |        7351     12.05%     40.45% |        6260     10.27%     50.72% |        7877     12.92%     63.64% |        7910     12.97%     76.61% |        6723     11.02%     87.63% |        7543     12.37%    100.00% (Unspecified)
system.caches.L2Cache_Controller.Ack::total        60983                       (Unspecified)
system.caches.L2Cache_Controller.Ack_all |       15010     14.78%     14.78% |       14673     14.44%     29.22% |       11989     11.80%     41.02% |       10809     10.64%     51.66% |       12801     12.60%     64.27% |       12034     11.85%     76.11% |       11294     11.12%     87.23% |       12970     12.77%    100.00% (Unspecified)
system.caches.L2Cache_Controller.Ack_all::total       101580                       (Unspecified)
system.caches.L2Cache_Controller.Unblock |       10739     23.53%     23.53% |        5094     11.16%     34.69% |        1522      3.33%     38.03% |        2100      4.60%     42.63% |        1204      2.64%     45.27% |         914      2.00%     47.27% |       22624     49.57%     96.84% |        1441      3.16%    100.00% (Unspecified)
system.caches.L2Cache_Controller.Unblock::total        45638                       (Unspecified)
system.caches.L2Cache_Controller.Exclusive_Unblock |     5182557     12.50%     12.50% |     5178111     12.49%     25.00% |     5159688     12.45%     37.44% |     5236129     12.63%     50.08% |     5166537     12.46%     62.54% |     5172144     12.48%     75.02% |     5187225     12.51%     87.53% |     5167765     12.47%    100.00% (Unspecified)
system.caches.L2Cache_Controller.Exclusive_Unblock::total     41450156                       (Unspecified)
system.caches.L2Cache_Controller.NP.L1_GET_INSTR |        9433     13.87%     13.87% |        9327     13.71%     27.58% |        7756     11.40%     38.99% |        7307     10.74%     49.73% |        8598     12.64%     62.38% |        8746     12.86%     75.24% |        7729     11.36%     86.60% |        9112     13.40%    100.00% (Unspecified)
system.caches.L2Cache_Controller.NP.L1_GET_INSTR::total        68008                       (Unspecified)
system.caches.L2Cache_Controller.NP.L1_GETS |     4011993     12.50%     12.50% |     4011609     12.50%     25.01% |     4010398     12.50%     37.51% |     4010288     12.50%     50.01% |     4010265     12.50%     62.50% |     4009997     12.50%     75.00% |     4009752     12.50%     87.50% |     4010666     12.50%    100.00% (Unspecified)
system.caches.L2Cache_Controller.NP.L1_GETS::total     32084968                       (Unspecified)
system.caches.L2Cache_Controller.NP.L1_GETX |     1119421     12.51%     12.51% |     1118465     12.50%     25.00% |     1117819     12.49%     37.49% |     1118662     12.50%     49.99% |     1118333     12.50%     62.49% |     1119958     12.51%     75.00% |     1118356     12.50%     87.50% |     1119043     12.50%    100.00% (Unspecified)
system.caches.L2Cache_Controller.NP.L1_GETX::total      8950057                       (Unspecified)
system.caches.L2Cache_Controller.SS.L1_GET_INSTR |        4054      1.82%      1.82% |       38811     17.38%     19.20% |       35469     15.88%     35.08% |        3077      1.38%     36.46% |       19486      8.73%     45.18% |       34389     15.40%     60.58% |       44053     19.73%     80.31% |       43964     19.69%    100.00% (Unspecified)
system.caches.L2Cache_Controller.SS.L1_GET_INSTR::total       223303                       (Unspecified)
system.caches.L2Cache_Controller.SS.L1_GETS |       26082     28.30%     28.30% |       11660     12.65%     40.95% |       12741     13.82%     54.77% |        7385      8.01%     62.78% |        8716      9.46%     72.24% |        7874      8.54%     80.78% |        4738      5.14%     85.92% |       12977     14.08%    100.00% (Unspecified)
system.caches.L2Cache_Controller.SS.L1_GETS::total        92173                       (Unspecified)
system.caches.L2Cache_Controller.SS.L1_GETX |        2423     73.96%     73.96% |           0      0.00%     73.96% |           0      0.00%     73.96% |           0      0.00%     73.96% |          17      0.52%     74.48% |           0      0.00%     74.48% |         836     25.52%    100.00% |           0      0.00%    100.00% (Unspecified)
system.caches.L2Cache_Controller.SS.L1_GETX::total         3276                       (Unspecified)
system.caches.L2Cache_Controller.SS.L1_UPGRADE |        6405     19.65%     19.65% |        4095     12.56%     32.21% |          21      0.06%     32.28% |        1019      3.13%     35.40% |          69      0.21%     35.61% |           2      0.01%     35.62% |       20893     64.09%     99.71% |          93      0.29%    100.00% (Unspecified)
system.caches.L2Cache_Controller.SS.L1_UPGRADE::total        32597                       (Unspecified)
system.caches.L2Cache_Controller.SS.L2_Replacement |          31     12.86%     12.86% |          32     13.28%     26.14% |          33     13.69%     39.83% |          33     13.69%     53.53% |          30     12.45%     65.98% |          26     10.79%     76.76% |          29     12.03%     88.80% |          27     11.20%    100.00% (Unspecified)
system.caches.L2Cache_Controller.SS.L2_Replacement::total          241                       (Unspecified)
system.caches.L2Cache_Controller.SS.L2_Replacement_clean |       12470     15.39%     15.39% |       10637     13.13%     28.52% |        9805     12.10%     40.62% |        8627     10.65%     51.26% |        9927     12.25%     63.51% |       10005     12.35%     75.86% |        8700     10.74%     86.60% |       10860     13.40%    100.00% (Unspecified)
system.caches.L2Cache_Controller.SS.L2_Replacement_clean::total        81031                       (Unspecified)
system.caches.L2Cache_Controller.M.L1_GETS |        8538     11.74%     11.74% |       14477     19.91%     31.66% |        4847      6.67%     38.33% |       11243     15.47%     53.79% |        9748     13.41%     67.20% |        8206     11.29%     78.49% |        8303     11.42%     89.91% |        7333     10.09%    100.00% (Unspecified)
system.caches.L2Cache_Controller.M.L1_GETS::total        72695                       (Unspecified)
system.caches.L2Cache_Controller.M.L1_GETX |       34626     14.24%     14.24% |       29834     12.27%     26.50% |       27224     11.19%     37.69% |       29061     11.95%     49.64% |       28384     11.67%     61.31% |       33782     13.89%     75.20% |       29218     12.01%     87.21% |       31101     12.79%    100.00% (Unspecified)
system.caches.L2Cache_Controller.M.L1_GETX::total       243230                       (Unspecified)
system.caches.L2Cache_Controller.M.L2_Replacement |     1114172     12.50%     12.50% |     1114456     12.50%     25.00% |     1114625     12.50%     37.50% |     1114757     12.50%     50.00% |     1114488     12.50%     62.50% |     1114558     12.50%     75.00% |     1114494     12.50%     87.50% |     1114650     12.50%    100.00% (Unspecified)
system.caches.L2Cache_Controller.M.L2_Replacement::total      8916200                       (Unspecified)
system.caches.L2Cache_Controller.M.L2_Replacement_clean |     3987488     12.50%     12.50% |     3987528     12.50%     25.00% |     3987482     12.50%     37.50% |     3987356     12.50%     50.00% |     3987136     12.50%     62.50% |     3987293     12.50%     75.00% |     3987203     12.50%     87.50% |     3987322     12.50%    100.00% (Unspecified)
system.caches.L2Cache_Controller.M.L2_Replacement_clean::total     31898808                       (Unspecified)
system.caches.L2Cache_Controller.MT.L1_GETS |       10739     23.53%     23.53% |        5094     11.16%     34.69% |        1522      3.33%     38.03% |        2100      4.60%     42.63% |        1204      2.64%     45.27% |         914      2.00%     47.27% |       22624     49.57%     96.84% |        1441      3.16%    100.00% (Unspecified)
system.caches.L2Cache_Controller.MT.L1_GETS::total        45638                       (Unspecified)
system.caches.L2Cache_Controller.MT.L1_GETX |         361      0.54%      0.54% |          22      0.03%      0.57% |           7      0.01%      0.58% |       66159     98.49%     99.07% |           0      0.00%     99.07% |         608      0.91%     99.98% |          10      0.01%     99.99% |           6      0.01%    100.00% (Unspecified)
system.caches.L2Cache_Controller.MT.L1_GETX::total        67173                       (Unspecified)
system.caches.L2Cache_Controller.MT.L1_PUTX |     5159183     12.51%     12.51% |     5160637     12.51%     25.02% |     5148530     12.48%     37.50% |     5156773     12.50%     50.01% |     5154105     12.50%     62.50% |     5158190     12.51%     75.01% |     5153565     12.49%     87.50% |     5154749     12.50%    100.00% (Unspecified)
system.caches.L2Cache_Controller.MT.L1_PUTX::total     41245732                       (Unspecified)
system.caches.L2Cache_Controller.MT.L2_Replacement |         758     14.82%     14.82% |         523     10.23%     25.05% |         433      8.47%     33.52% |         696     13.61%     47.13% |         493      9.64%     56.78% |         808     15.80%     72.58% |         642     12.56%     85.14% |         760     14.86%    100.00% (Unspecified)
system.caches.L2Cache_Controller.MT.L2_Replacement::total         5113                       (Unspecified)
system.caches.L2Cache_Controller.MT.L2_Replacement_clean |        9544     13.52%     13.52% |        9841     13.95%     27.47% |        7211     10.22%     37.69% |        8404     11.91%     49.60% |        8738     12.38%     61.98% |        9627     13.64%     75.62% |        8385     11.88%     87.50% |        8818     12.50%    100.00% (Unspecified)
system.caches.L2Cache_Controller.MT.L2_Replacement_clean::total        70568                       (Unspecified)
system.caches.L2Cache_Controller.M_I.L1_GET_INSTR |           0      0.00%      0.00% |           0      0.00%      0.00% |           0      0.00%      0.00% |          35     25.36%     25.36% |          18     13.04%     38.41% |          34     24.64%     63.04% |           0      0.00%     63.04% |          51     36.96%    100.00% (Unspecified)
system.caches.L2Cache_Controller.M_I.L1_GET_INSTR::total          138                       (Unspecified)
system.caches.L2Cache_Controller.M_I.L1_GETS |          31     25.20%     25.20% |          17     13.82%     39.02% |           9      7.32%     46.34% |           9      7.32%     53.66% |          19     15.45%     69.11% |          10      8.13%     77.24% |          10      8.13%     85.37% |          18     14.63%    100.00% (Unspecified)
system.caches.L2Cache_Controller.M_I.L1_GETS::total          123                       (Unspecified)
system.caches.L2Cache_Controller.M_I.L1_GETX |          29     13.30%     13.30% |          22     10.09%     23.39% |          21      9.63%     33.03% |          32     14.68%     47.71% |          20      9.17%     56.88% |          27     12.39%     69.27% |          26     11.93%     81.19% |          41     18.81%    100.00% (Unspecified)
system.caches.L2Cache_Controller.M_I.L1_GETX::total          218                       (Unspecified)
system.caches.L2Cache_Controller.M_I.Mem_Ack |     5124463     12.51%     12.51% |     5123017     12.50%     25.01% |     5119589     12.50%     37.51% |     5119873     12.50%     50.00% |     5120812     12.50%     62.50% |     5122317     12.50%     75.00% |     5119453     12.50%     87.50% |     5122437     12.50%    100.00% (Unspecified)
system.caches.L2Cache_Controller.M_I.Mem_Ack::total     40971961                       (Unspecified)
system.caches.L2Cache_Controller.MT_I.WB_Data |         754     14.91%     14.91% |         518     10.24%     25.15% |         431      8.52%     33.67% |         693     13.70%     47.37% |         488      9.65%     57.02% |         802     15.86%     72.87% |         618     12.22%     85.09% |         754     14.91%    100.00% (Unspecified)
system.caches.L2Cache_Controller.MT_I.WB_Data::total         5058                       (Unspecified)
system.caches.L2Cache_Controller.MT_I.Ack_all |           4      7.27%      7.27% |           5      9.09%     16.36% |           2      3.64%     20.00% |           3      5.45%     25.45% |           5      9.09%     34.55% |           6     10.91%     45.45% |          24     43.64%     89.09% |           6     10.91%    100.00% (Unspecified)
system.caches.L2Cache_Controller.MT_I.Ack_all::total           55                       (Unspecified)
system.caches.L2Cache_Controller.MCT_I.WB_Data |        7039     13.99%     13.99% |        5842     11.61%     25.60% |        5062     10.06%     35.66% |        6258     12.44%     48.10% |        5899     11.72%     59.82% |        7630     15.16%     74.99% |        5844     11.61%     86.60% |        6741     13.40%    100.00% (Unspecified)
system.caches.L2Cache_Controller.MCT_I.WB_Data::total        50315                       (Unspecified)
system.caches.L2Cache_Controller.MCT_I.Ack_all |        2505     12.37%     12.37% |        3999     19.75%     32.11% |        2149     10.61%     42.72% |        2146     10.60%     53.32% |        2839     14.02%     67.34% |        1997      9.86%     77.20% |        2541     12.55%     89.74% |        2077     10.26%    100.00% (Unspecified)
system.caches.L2Cache_Controller.MCT_I.Ack_all::total        20253                       (Unspecified)
system.caches.L2Cache_Controller.I_I.Ack |        9595     15.80%     15.80% |        7661     12.61%     28.41% |        7318     12.05%     40.46% |        6227     10.25%     50.71% |        7847     12.92%     63.63% |        7884     12.98%     76.61% |        6694     11.02%     87.63% |        7516     12.37%    100.00% (Unspecified)
system.caches.L2Cache_Controller.I_I.Ack::total        60742                       (Unspecified)
system.caches.L2Cache_Controller.I_I.Ack_all |       12470     15.39%     15.39% |       10637     13.13%     28.52% |        9805     12.10%     40.62% |        8627     10.65%     51.26% |        9927     12.25%     63.51% |       10005     12.35%     75.86% |        8700     10.74%     86.60% |       10860     13.40%    100.00% (Unspecified)
system.caches.L2Cache_Controller.I_I.Ack_all::total        81031                       (Unspecified)
system.caches.L2Cache_Controller.S_I.Ack |          31     12.86%     12.86% |          32     13.28%     26.14% |          33     13.69%     39.83% |          33     13.69%     53.53% |          30     12.45%     65.98% |          26     10.79%     76.76% |          29     12.03%     88.80% |          27     11.20%    100.00% (Unspecified)
system.caches.L2Cache_Controller.S_I.Ack::total          241                       (Unspecified)
system.caches.L2Cache_Controller.S_I.Ack_all |          31     12.86%     12.86% |          32     13.28%     26.14% |          33     13.69%     39.83% |          33     13.69%     53.53% |          30     12.45%     65.98% |          26     10.79%     76.76% |          29     12.03%     88.80% |          27     11.20%    100.00% (Unspecified)
system.caches.L2Cache_Controller.S_I.Ack_all::total          241                       (Unspecified)
system.caches.L2Cache_Controller.ISS.L1_GETS |        1209     31.50%     31.50% |         391     10.19%     41.69% |         627     16.34%     58.03% |         303      7.89%     65.92% |         279      7.27%     73.19% |         409     10.66%     83.85% |         143      3.73%     87.57% |         477     12.43%    100.00% (Unspecified)
system.caches.L2Cache_Controller.ISS.L1_GETS::total         3838                       (Unspecified)
system.caches.L2Cache_Controller.ISS.Mem_Data |     4010783     12.50%     12.50% |     4011218     12.50%     25.01% |     4009770     12.50%     37.50% |     4009985     12.50%     50.00% |     4009986     12.50%     62.50% |     4009588     12.50%     75.00% |     4009609     12.50%     87.50% |     4010189     12.50%    100.00% (Unspecified)
system.caches.L2Cache_Controller.ISS.Mem_Data::total     32081128                       (Unspecified)
system.caches.L2Cache_Controller.IS.L1_GET_INSTR |        3119     14.98%     14.98% |        3002     14.41%     29.39% |        2506     12.03%     41.42% |        2248     10.79%     52.21% |        2652     12.73%     64.95% |        2810     13.49%     78.44% |        2215     10.63%     89.07% |        2276     10.93%    100.00% (Unspecified)
system.caches.L2Cache_Controller.IS.L1_GET_INSTR::total        20828                       (Unspecified)
system.caches.L2Cache_Controller.IS.Mem_Data |       10642     14.81%     14.81% |        9718     13.53%     28.34% |        8383     11.67%     40.01% |        7610     10.59%     50.60% |        8877     12.36%     62.95% |        9155     12.74%     75.70% |        7872     10.96%     86.65% |        9589     13.35%    100.00% (Unspecified)
system.caches.L2Cache_Controller.IS.Mem_Data::total        71846                       (Unspecified)
system.caches.L2Cache_Controller.IM.L1_GETX |           1     12.50%     12.50% |           4     50.00%     62.50% |           0      0.00%     62.50% |           3     37.50%    100.00% |           0      0.00%    100.00% |           0      0.00%    100.00% |           0      0.00%    100.00% |           0      0.00%    100.00% (Unspecified)
system.caches.L2Cache_Controller.IM.L1_GETX::total            8                       (Unspecified)
system.caches.L2Cache_Controller.IM.Mem_Data |     1119421     12.51%     12.51% |     1118465     12.50%     25.00% |     1117819     12.49%     37.49% |     1118662     12.50%     49.99% |     1118333     12.50%     62.49% |     1119958     12.51%     75.00% |     1118356     12.50%     87.50% |     1119043     12.50%    100.00% (Unspecified)
system.caches.L2Cache_Controller.IM.Mem_Data::total      8950057                       (Unspecified)
system.caches.L2Cache_Controller.SS_MB.L1_GETS |           6      0.05%      0.05% |           0      0.00%      0.05% |           1      0.01%      0.05% |           0      0.00%      0.05% |           0      0.00%      0.05% |           0      0.00%      0.05% |       12864     99.95%    100.00% |           0      0.00%    100.00% (Unspecified)
system.caches.L2Cache_Controller.SS_MB.L1_GETS::total        12871                       (Unspecified)
system.caches.L2Cache_Controller.SS_MB.L1_UPGRADE |           4    100.00%    100.00% |           0      0.00%    100.00% |           0      0.00%    100.00% |           0      0.00%    100.00% |           0      0.00%    100.00% |           0      0.00%    100.00% |           0      0.00%    100.00% |           0      0.00%    100.00% (Unspecified)
system.caches.L2Cache_Controller.SS_MB.L1_UPGRADE::total            4                       (Unspecified)
system.caches.L2Cache_Controller.SS_MB.Exclusive_Unblock |        8828     24.61%     24.61% |        4095     11.42%     36.02% |          21      0.06%     36.08% |        1019      2.84%     38.92% |          86      0.24%     39.16% |           2      0.01%     39.17% |       21729     60.57%     99.74% |          93      0.26%    100.00% (Unspecified)
system.caches.L2Cache_Controller.SS_MB.Exclusive_Unblock::total        35873                       (Unspecified)
system.caches.L2Cache_Controller.MT_MB.L1_GETS |          16     31.37%     31.37% |           6     11.76%     43.14% |           4      7.84%     50.98% |          12     23.53%     74.51% |           6     11.76%     86.27% |           1      1.96%     88.24% |           0      0.00%     88.24% |           6     11.76%    100.00% (Unspecified)
system.caches.L2Cache_Controller.MT_MB.L1_GETS::total           51                       (Unspecified)
system.caches.L2Cache_Controller.MT_MB.L1_GETX |           0      0.00%      0.00% |           0      0.00%      0.00% |           0      0.00%      0.00% |          19    100.00%    100.00% |           0      0.00%    100.00% |           0      0.00%    100.00% |           0      0.00%    100.00% |           0      0.00%    100.00% (Unspecified)
system.caches.L2Cache_Controller.MT_MB.L1_GETX::total           19                       (Unspecified)
system.caches.L2Cache_Controller.MT_MB.Exclusive_Unblock |     5173729     12.49%     12.49% |     5174016     12.49%     24.99% |     5159667     12.46%     37.44% |     5235110     12.64%     50.09% |     5166451     12.48%     62.56% |     5172142     12.49%     75.05% |     5165496     12.47%     87.52% |     5167672     12.48%    100.00% (Unspecified)
system.caches.L2Cache_Controller.MT_MB.Exclusive_Unblock::total     41414283                       (Unspecified)
system.caches.L2Cache_Controller.MT_IIB.WB_Data |        8838     24.78%     24.78% |        3776     10.59%     35.37% |          39      0.11%     35.48% |        1035      2.90%     38.38% |         106      0.30%     38.68% |          18      0.05%     38.73% |       21746     60.97%     99.70% |         108      0.30%    100.00% (Unspecified)
system.caches.L2Cache_Controller.MT_IIB.WB_Data::total        35666                       (Unspecified)
system.caches.L2Cache_Controller.MT_IIB.WB_Data_clean |        1901     19.06%     19.06% |        1318     13.22%     32.28% |        1483     14.87%     47.15% |        1065     10.68%     57.83% |        1098     11.01%     68.84% |         896      8.99%     77.83% |         878      8.80%     86.63% |        1333     13.37%    100.00% (Unspecified)
system.caches.L2Cache_Controller.MT_IIB.WB_Data_clean::total         9972                       (Unspecified)
system.caches.L2Cache_Controller.MT_SB.L1_UPGRADE |           0      0.00%      0.00% |           0      0.00%      0.00% |           0      0.00%      0.00% |           0      0.00%      0.00% |           0      0.00%      0.00% |           0      0.00%      0.00% |       10843    100.00%    100.00% |           0      0.00%    100.00% (Unspecified)
system.caches.L2Cache_Controller.MT_SB.L1_UPGRADE::total        10843                       (Unspecified)
system.caches.L2Cache_Controller.MT_SB.Unblock |       10739     23.53%     23.53% |        5094     11.16%     34.69% |        1522      3.33%     38.03% |        2100      4.60%     42.63% |        1204      2.64%     45.27% |         914      2.00%     47.27% |       22624     49.57%     96.84% |        1441      3.16%    100.00% (Unspecified)
system.caches.L2Cache_Controller.MT_SB.Unblock::total        45638                       (Unspecified)
system.caches.RequestType.LD.latency_hist_seqr::bucket_size          512                       (Unspecified)
system.caches.RequestType.LD.latency_hist_seqr::max_bucket         5119                       (Unspecified)
system.caches.RequestType.LD.latency_hist_seqr::samples   1100311164                       (Unspecified)
system.caches.RequestType.LD.latency_hist_seqr::mean    17.184760                       (Unspecified)
system.caches.RequestType.LD.latency_hist_seqr::gmean     1.200879                       (Unspecified)
system.caches.RequestType.LD.latency_hist_seqr::stdev   103.565214                       (Unspecified)
system.caches.RequestType.LD.latency_hist_seqr |  1091977383     99.24%     99.24% |     7198253      0.65%     99.90% |      218767      0.02%     99.92% |      816992      0.07%     99.99% |       97432      0.01%    100.00% |        2288      0.00%    100.00% |          47      0.00%    100.00% |           2      0.00%    100.00% |           0      0.00%    100.00% |           0      0.00%    100.00% (Unspecified)
system.caches.RequestType.LD.latency_hist_seqr::total   1100311164                       (Unspecified)
system.caches.RequestType.LD.hit_latency_hist_seqr::bucket_size            1                       (Unspecified)
system.caches.RequestType.LD.hit_latency_hist_seqr::max_bucket            9                       (Unspecified)
system.caches.RequestType.LD.hit_latency_hist_seqr::samples   1068011854                       (Unspecified)
system.caches.RequestType.LD.hit_latency_hist_seqr::mean            1                       (Unspecified)
system.caches.RequestType.LD.hit_latency_hist_seqr::gmean            1                       (Unspecified)
[...]
system.timingCpu0.exec_context.thread_0.statExecutedInstType::SimdFloatMultAcc            0      0.00%     75.73% # Class of executed instruction. (Count)
system.timingCpu0.exec_context.thread_0.statExecutedInstType::SimdFloatSqrt            0      0.00%     75.73% # Class of executed instruction. (Count)
system.timingCpu0.exec_context.thread_0.statExecutedInstType::SimdReduceAdd            0      0.00%     75.73% # Class of executed instruction. (Count)
system.timingCpu0.exec_context.thread_0.statExecutedInstType::SimdReduceAlu            0      0.00%     75.73% # Class of executed instruction. (Count)
system.timingCpu0.exec_context.thread_0.statExecutedInstType::SimdReduceCmp            0      0.00%     75.73% # Class of executed instruction. (Count)
system.timingCpu0.exec_context.thread_0.statExecutedInstType::SimdFloatReduceAdd            0      0.00%     75.73% # Class of executed instruction. (Count)
system.timingCpu0.exec_context.thread_0.statExecutedInstType::SimdFloatReduceCmp            0      0.00%     75.73% # Class of executed instruction. (Count)
system.timingCpu0.exec_context.thread_0.statExecutedInstType::SimdAes            0      0.00%     75.73% # Class of executed instruction. (Count)
system.timingCpu0.exec_context.thread_0.statExecutedInstType::SimdAesMix            0      0.00%     75.73% # Class of executed instruction. (Count)
system.timingCpu0.exec_context.thread_0.statExecutedInstType::SimdSha1Hash            0      0.00%     75.73% # Class of executed instruction. (Count)
system.timingCpu0.exec_context.thread_0.statExecutedInstType::SimdSha1Hash2            0      0.00%     75.73% # Class of executed instruction. (Count)
system.timingCpu0.exec_context.thread_0.statExecutedInstType::SimdSha256Hash            0      0.00%     75.73% # Class of executed instruction. (Count)
system.timingCpu0.exec_context.thread_0.statExecutedInstType::SimdSha256Hash2            0      0.00%     75.73% # Class of executed instruction. (Count)
system.timingCpu0.exec_context.thread_0.statExecutedInstType::SimdShaSigma2            0      0.00%     75.73% # Class of executed instruction. (Count)
system.timingCpu0.exec_context.thread_0.statExecutedInstType::SimdShaSigma3            0      0.00%     75.73% # Class of executed instruction. (Count)
system.timingCpu0.exec_context.thread_0.statExecutedInstType::SimdPredAlu            0      0.00%     75.73% # Class of executed instruction. (Count)
system.timingCpu0.exec_context.thread_0.statExecutedInstType::MemRead    588356770     15.51%     91.24% # Class of executed instruction. (Count)
system.timingCpu0.exec_context.thread_0.statExecutedInstType::MemWrite    330319064      8.70%     99.94% # Class of executed instruction. (Count)
system.timingCpu0.exec_context.thread_0.statExecutedInstType::FloatMemRead          128      0.00%     99.94% # Class of executed instruction. (Count)
system.timingCpu0.exec_context.thread_0.statExecutedInstType::FloatMemWrite      2105736      0.06%    100.00% # Class of executed instruction. (Count)
system.timingCpu0.exec_context.thread_0.statExecutedInstType::IprAccess            0      0.00%    100.00% # Class of executed instruction. (Count)
system.timingCpu0.exec_context.thread_0.statExecutedInstType::InstPrefetch            0      0.00%    100.00% # Class of executed instruction. (Count)
system.timingCpu0.exec_context.thread_0.statExecutedInstType::total   3794610977                       # Class of executed instruction. (Count)
system.timingCpu0.mmu.dtb.rdAccesses        588482375                       # TLB accesses on read requests (Count)
system.timingCpu0.mmu.dtb.wrAccesses        382812465                       # TLB accesses on write requests (Count)
system.timingCpu0.mmu.dtb.rdMisses             125476                       # TLB misses on read requests (Count)
system.timingCpu0.mmu.dtb.wrMisses           50387677                       # TLB misses on write requests (Count)
system.timingCpu0.mmu.dtb.walker.power_state.pwrStateResidencyTicks::UNDEFINED 30657876838750                       # Cumulative time (in ticks) in various power states (Tick)
system.timingCpu0.mmu.itb.rdAccesses                0                       # TLB accesses on read requests (Count)
system.timingCpu0.mmu.itb.wrAccesses       2796046364                       # TLB accesses on write requests (Count)
system.timingCpu0.mmu.itb.rdMisses                  0                       # TLB misses on read requests (Count)
system.timingCpu0.mmu.itb.wrMisses               6662                       # TLB misses on write requests (Count)
system.timingCpu0.mmu.itb.walker.power_state.pwrStateResidencyTicks::UNDEFINED 30657876838750                       # Cumulative time (in ticks) in various power states (Tick)
system.timingCpu0.power_state.pwrStateResidencyTicks::OFF 30657876838750                       # Cumulative time (in ticks) in various power states (Tick)
system.timingCpu0.thread_0.numInsts                 0                       # Number of Instructions committed (Count)
system.timingCpu0.thread_0.numOps                   0                       # Number of Ops committed (Count)
system.timingCpu0.thread_0.numMemRefs               0                       # Number of Memory References (Count)
system.timingCpu1.numCycles               19999999787                       # Number of cpu cycles simulated (Cycle)
system.timingCpu1.numWorkItemsStarted               0                       # Number of work items this cpu started (Count)
system.timingCpu1.numWorkItemsCompleted             0                       # Number of work items this cpu completed (Count)
system.timingCpu1.exec_context.thread_0.numInsts   2217983054                       # Number of instructions committed (Count)
system.timingCpu1.exec_context.thread_0.numOps   3787051751                       # Number of ops (including micro ops) committed (Count)
system.timingCpu1.exec_context.thread_0.numIntAluAccesses   3786284779                       # Number of integer alu accesses (Count)
system.timingCpu1.exec_context.thread_0.numFpAluAccesses      2103642                       # Number of float alu accesses (Count)
system.timingCpu1.exec_context.thread_0.numVecAluAccesses            0                       # Number of vector alu accesses (Count)
system.timingCpu1.exec_context.thread_0.numCallsReturns       779960                       # Number of times a function call or return occured (Count)
system.timingCpu1.exec_context.thread_0.numCondCtrlInsts    262216982                       # Number of instructions that are conditional controls (Count)
system.timingCpu1.exec_context.thread_0.numIntInsts   3786284779                       # Number of integer instructions (Count)
system.timingCpu1.exec_context.thread_0.numFpInsts      2103642                       # Number of float instructions (Count)
system.timingCpu1.exec_context.thread_0.numVecInsts            0                       # Number of vector instructions (Count)
system.timingCpu1.exec_context.thread_0.numIntRegReads   6241928089                       # Number of times the integer registers were read (Count)
system.timingCpu1.exec_context.thread_0.numIntRegWrites   2929759181                       # Number of times the integer registers were written (Count)
system.timingCpu1.exec_context.thread_0.numFpRegReads      2108020                       # Number of times the floating registers were read (Count)
system.timingCpu1.exec_context.thread_0.numFpRegWrites         5482                       # Number of times the floating registers were written (Count)
system.timingCpu1.exec_context.thread_0.numVecRegReads            0                       # Number of times the vector registers were read (Count)
system.timingCpu1.exec_context.thread_0.numVecRegWrites            0                       # Number of times the vector registers were written (Count)
system.timingCpu1.exec_context.thread_0.numVecPredRegReads            0                       # Number of times the predicate registers were read (Count)
system.timingCpu1.exec_context.thread_0.numVecPredRegWrites            0                       # Number of times the predicate registers were written (Count)
system.timingCpu1.exec_context.thread_0.numCCRegReads   1504339468                       # Number of times the CC registers were read (Count)
system.timingCpu1.exec_context.thread_0.numCCRegWrites   1813976911                       # Number of times the CC registers were written (Count)
system.timingCpu1.exec_context.thread_0.numMiscRegReads   1445640403                       # Number of times the Misc registers were read (Count)
system.timingCpu1.exec_context.thread_0.numMiscRegWrites       171962                       # Number of times the Misc registers were written (Count)
system.timingCpu1.exec_context.thread_0.numMemRefs    918648295                       # Number of memory refs (Count)
system.timingCpu1.exec_context.thread_0.numLoadInsts    587217666                       # Number of load instructions (Count)
system.timingCpu1.exec_context.thread_0.numStoreInsts    331430629                       # Number of store instructions (Count)
system.timingCpu1.exec_context.thread_0.numIdleCycles            0                       # Number of idle cycles (Cycle)
system.timingCpu1.exec_context.thread_0.numBusyCycles  19999999787                       # Number of busy cycles (Cycle)
system.timingCpu1.exec_context.thread_0.notIdleFraction            1                       # Percentage of non-idle cycles (Ratio)
system.timingCpu1.exec_context.thread_0.idleFraction            0                       # Percentage of idle cycles (Ratio)
system.timingCpu1.exec_context.thread_0.numBranches    263413384                       # Number of branches fetched (Count)
system.timingCpu1.exec_context.thread_0.statExecutedInstType::No_OpClass        33074      0.00%      0.00% # Class of executed instruction. (Count)
system.timingCpu1.exec_context.thread_0.statExecutedInstType::IntAlu   2868027584     75.73%     75.73% # Class of executed instruction. (Count)
system.timingCpu1.exec_context.thread_0.statExecutedInstType::IntMult       117251      0.00%     75.74% # Class of executed instruction. (Count)
system.timingCpu1.exec_context.thread_0.statExecutedInstType::IntDiv       220673      0.01%     75.74% # Class of executed instruction. (Count)
system.timingCpu1.exec_context.thread_0.statExecutedInstType::FloatAdd          563      0.00%     75.74% # Class of executed instruction. (Count)
system.timingCpu1.exec_context.thread_0.statExecutedInstType::FloatCmp            0      0.00%     75.74% # Class of executed instruction. (Count)
system.timingCpu1.exec_context.thread_0.statExecutedInstType::FloatCvt          208      0.00%     75.74% # Class of executed instruction. (Count)
system.timingCpu1.exec_context.thread_0.statExecutedInstType::FloatMult            0      0.00%     75.74% # Class of executed instruction. (Count)
system.timingCpu1.exec_context.thread_0.statExecutedInstType::FloatMultAcc            0      0.00%     75.74% # Class of executed instruction. (Count)
system.timingCpu1.exec_context.thread_0.statExecutedInstType::FloatDiv            0      0.00%     75.74% # Class of executed instruction. (Count)
system.timingCpu1.exec_context.thread_0.statExecutedInstType::FloatMisc            0      0.00%     75.74% # Class of executed instruction. (Count)
system.timingCpu1.exec_context.thread_0.statExecutedInstType::FloatSqrt            0      0.00%     75.74% # Class of executed instruction. (Count)
system.timingCpu1.exec_context.thread_0.statExecutedInstType::SimdAdd           84      0.00%     75.74% # Class of executed instruction. (Count)
system.timingCpu1.exec_context.thread_0.statExecutedInstType::SimdAddAcc            0      0.00%     75.74% # Class of executed instruction. (Count)
system.timingCpu1.exec_context.thread_0.statExecutedInstType::SimdAlu          119      0.00%     75.74% # Class of executed instruction. (Count)
system.timingCpu1.exec_context.thread_0.statExecutedInstType::SimdCmp            0      0.00%     75.74% # Class of executed instruction. (Count)
system.timingCpu1.exec_context.thread_0.statExecutedInstType::SimdCvt          176      0.00%     75.74% # Class of executed instruction. (Count)
system.timingCpu1.exec_context.thread_0.statExecutedInstType::SimdMisc         3686      0.00%     75.74% # Class of executed instruction. (Count)
system.timingCpu1.exec_context.thread_0.statExecutedInstType::SimdMult            0      0.00%     75.74% # Class of executed instruction. (Count)
system.timingCpu1.exec_context.thread_0.statExecutedInstType::SimdMultAcc            0      0.00%     75.74% # Class of executed instruction. (Count)
system.timingCpu1.exec_context.thread_0.statExecutedInstType::SimdShift           38      0.00%     75.74% # Class of executed instruction. (Count)
system.timingCpu1.exec_context.thread_0.statExecutedInstType::SimdShiftAcc            0      0.00%     75.74% # Class of executed instruction. (Count)
system.timingCpu1.exec_context.thread_0.statExecutedInstType::SimdDiv            0      0.00%     75.74% # Class of executed instruction. (Count)
system.timingCpu1.exec_context.thread_0.statExecutedInstType::SimdSqrt            0      0.00%     75.74% # Class of executed instruction. (Count)
system.timingCpu1.exec_context.thread_0.statExecutedInstType::SimdFloatAdd            0      0.00%     75.74% # Class of executed instruction. (Count)
system.timingCpu1.exec_context.thread_0.statExecutedInstType::SimdFloatAlu            0      0.00%     75.74% # Class of executed instruction. (Count)
system.timingCpu1.exec_context.thread_0.statExecutedInstType::SimdFloatCmp            0      0.00%     75.74% # Class of executed instruction. (Count)
system.timingCpu1.exec_context.thread_0.statExecutedInstType::SimdFloatCvt            0      0.00%     75.74% # Class of executed instruction. (Count)
system.timingCpu1.exec_context.thread_0.statExecutedInstType::SimdFloatDiv            0      0.00%     75.74% # Class of executed instruction. (Count)
system.timingCpu1.exec_context.thread_0.statExecutedInstType::SimdFloatMisc            0      0.00%     75.74% # Class of executed instruction. (Count)
system.timingCpu1.exec_context.thread_0.statExecutedInstType::SimdFloatMult            0      0.00%     75.74% # Class of executed instruction. (Count)
system.timingCpu1.exec_context.thread_0.statExecutedInstType::SimdFloatMultAcc            0      0.00%     75.74% # Class of executed instruction. (Count)
system.timingCpu1.exec_context.thread_0.statExecutedInstType::SimdFloatSqrt            0      0.00%     75.74% # Class of executed instruction. (Count)
system.timingCpu1.exec_context.thread_0.statExecutedInstType::SimdReduceAdd            0      0.00%     75.74% # Class of executed instruction. (Count)
system.timingCpu1.exec_context.thread_0.statExecutedInstType::SimdReduceAlu            0      0.00%     75.74% # Class of executed instruction. (Count)
system.timingCpu1.exec_context.thread_0.statExecutedInstType::SimdReduceCmp            0      0.00%     75.74% # Class of executed instruction. (Count)
system.timingCpu1.exec_context.thread_0.statExecutedInstType::SimdFloatReduceAdd            0      0.00%     75.74% # Class of executed instruction. (Count)
system.timingCpu1.exec_context.thread_0.statExecutedInstType::SimdFloatReduceCmp            0      0.00%     75.74% # Class of executed instruction. (Count)
system.timingCpu1.exec_context.thread_0.statExecutedInstType::SimdAes            0      0.00%     75.74% # Class of executed instruction. (Count)
system.timingCpu1.exec_context.thread_0.statExecutedInstType::SimdAesMix            0      0.00%     75.74% # Class of executed instruction. (Count)
system.timingCpu1.exec_context.thread_0.statExecutedInstType::SimdSha1Hash            0      0.00%     75.74% # Class of executed instruction. (Count)
system.timingCpu1.exec_context.thread_0.statExecutedInstType::SimdSha1Hash2            0      0.00%     75.74% # Class of executed instruction. (Count)
system.timingCpu1.exec_context.thread_0.statExecutedInstType::SimdSha256Hash            0      0.00%     75.74% # Class of executed instruction. (Count)
system.timingCpu1.exec_context.thread_0.statExecutedInstType::SimdSha256Hash2            0      0.00%     75.74% # Class of executed instruction. (Count)
system.timingCpu1.exec_context.thread_0.statExecutedInstType::SimdShaSigma2            0      0.00%     75.74% # Class of executed instruction. (Count)
system.timingCpu1.exec_context.thread_0.statExecutedInstType::SimdShaSigma3            0      0.00%     75.74% # Class of executed instruction. (Count)
system.timingCpu1.exec_context.thread_0.statExecutedInstType::SimdPredAlu            0      0.00%     75.74% # Class of executed instruction. (Count)
system.timingCpu1.exec_context.thread_0.statExecutedInstType::MemRead    587217290     15.51%     91.25% # Class of executed instruction. (Count)
system.timingCpu1.exec_context.thread_0.statExecutedInstType::MemWrite    329332765      8.70%     99.94% # Class of executed instruction. (Count)
system.timingCpu1.exec_context.thread_0.statExecutedInstType::FloatMemRead          376      0.00%     99.94% # Class of executed instruction. (Count)
system.timingCpu1.exec_context.thread_0.statExecutedInstType::FloatMemWrite      2097864      0.06%    100.00% # Class of executed instruction. (Count)
system.timingCpu1.exec_context.thread_0.statExecutedInstType::IprAccess            0      0.00%    100.00% # Class of executed instruction. (Count)
system.timingCpu1.exec_context.thread_0.statExecutedInstType::InstPrefetch            0      0.00%    100.00% # Class of executed instruction. (Count)
system.timingCpu1.exec_context.thread_0.statExecutedInstType::total   3787051751                       # Class of executed instruction. (Count)
system.timingCpu1.mmu.dtb.rdAccesses        587403349                       # TLB accesses on read requests (Count)
system.timingCpu1.mmu.dtb.wrAccesses        381804768                       # TLB accesses on write requests (Count)
system.timingCpu1.mmu.dtb.rdMisses             186028                       # TLB misses on read requests (Count)
system.timingCpu1.mmu.dtb.wrMisses           50374294                       # TLB misses on write requests (Count)
system.timingCpu1.mmu.dtb.walker.power_state.pwrStateResidencyTicks::UNDEFINED 30657876838750                       # Cumulative time (in ticks) in various power states (Tick)
system.timingCpu1.mmu.itb.rdAccesses                0                       # TLB accesses on read requests (Count)
system.timingCpu1.mmu.itb.wrAccesses       2793385417                       # TLB accesses on write requests (Count)
system.timingCpu1.mmu.itb.rdMisses                  0                       # TLB misses on read requests (Count)
system.timingCpu1.mmu.itb.wrMisses               6604                       # TLB misses on write requests (Count)
system.timingCpu1.mmu.itb.walker.power_state.pwrStateResidencyTicks::UNDEFINED 30657876838750                       # Cumulative time (in ticks) in various power states (Tick)
system.timingCpu1.power_state.pwrStateResidencyTicks::OFF 30657876838750                       # Cumulative time (in ticks) in various power states (Tick)
system.timingCpu1.thread_0.numInsts                 0                       # Number of Instructions committed (Count)
system.timingCpu1.thread_0.numOps                   0                       # Number of Ops committed (Count)
system.timingCpu1.thread_0.numMemRefs               0                       # Number of Memory References (Count)
system.workload.inst.arm                            0                       # number of arm instructions executed (Count)
system.workload.inst.quiesce                        0                       # number of quiesce instructions executed (Count)

---------- End Simulation Statistics   ----------
