
---------- Begin Simulation Statistics ----------
simSeconds                                   0.020000                       # Number of seconds simulated (Second)
simTicks                                  20000011001                       # Number of ticks simulated (Tick)
finalTick                                 20000011001                       # Number of ticks from beginning of simulation (restored from checkpoints and never reset) (Tick)
simFreq                                  1000000000000                       # The number of ticks per simulated second ((Tick/Second))
hostSeconds                                    111.69                       # Real time elapsed on the host (Second)
hostTickRate                                179059716                       # The number of ticks simulated per host second (ticks/s) ((Tick/Second))
hostMemory                                    3253828                       # Number of bytes of host memory used (Byte)
system.clk_domain.clock                           250                       # Clock period in ticks (Tick)
system.clk_domain.voltage_domain.voltage            1                       # Voltage in Volts (Volt)
system.far_mem_ctrl.avgPriority_writebacks::samples   2356949.00                       # Average QoS priority value for accepted requests (Count)
system.far_mem_ctrl.priorityMinLatency   0.000000017492                       # per QoS priority minimum request to response latency (Second)
system.far_mem_ctrl.priorityMaxLatency   0.000001735126                       # per QoS priority maximum request to response latency (Second)
system.far_mem_ctrl.numReadWriteTurnArounds            0                       # Number of turnarounds from READ to WRITE (Count)
system.far_mem_ctrl.numWriteReadTurnArounds            0                       # Number of turnarounds from WRITE to READ (Count)
system.far_mem_ctrl.numStayReadState          2630558                       # Number of times bus staying in READ state (Count)
system.far_mem_ctrl.numStayWriteState               0                       # Number of times bus staying in WRITE state (Count)
system.far_mem_ctrl.readReqs                  2356949                       # Number of read requests accepted (Count)
system.far_mem_ctrl.writeReqs                       0                       # Number of write requests accepted (Count)
system.far_mem_ctrl.readBursts                2356949                       # Number of controller read bursts, including those serviced by the write queue (Count)
system.far_mem_ctrl.writeBursts                     0                       # Number of controller write bursts, including those merged in the write queue (Count)
system.far_mem_ctrl.servicedByWrQ                   0                       # Number of controller read bursts serviced by the write queue (Count)
system.far_mem_ctrl.mergedWrBursts                  0                       # Number of controller write bursts merged with an existing one (Count)
system.far_mem_ctrl.avgRdQLen                   16.55                       # Average read queue length when enqueuing ((Count/Tick))
system.far_mem_ctrl.avgWrQLen                    0.00                       # Average write queue length when enqueuing ((Count/Tick))
system.far_mem_ctrl.numRdRetry                 137444                       # Number of times read queue was full causing retry (Count)
system.far_mem_ctrl.numWrRetry                      0                       # Number of times write queue was full causing retry (Count)
system.far_mem_ctrl.readPktSize::0                  0                       # Read request sizes (log2) (Count)
system.far_mem_ctrl.readPktSize::1                  0                       # Read request sizes (log2) (Count)
system.far_mem_ctrl.readPktSize::2                  0                       # Read request sizes (log2) (Count)
system.far_mem_ctrl.readPktSize::3                  0                       # Read request sizes (log2) (Count)
system.far_mem_ctrl.readPktSize::4                  0                       # Read request sizes (log2) (Count)
system.far_mem_ctrl.readPktSize::5                  0                       # Read request sizes (log2) (Count)
system.far_mem_ctrl.readPktSize::6            2356949                       # Read request sizes (log2) (Count)
system.far_mem_ctrl.writePktSize::0                 0                       # Write request sizes (log2) (Count)
system.far_mem_ctrl.writePktSize::1                 0                       # Write request sizes (log2) (Count)
system.far_mem_ctrl.writePktSize::2                 0                       # Write request sizes (log2) (Count)
system.far_mem_ctrl.writePktSize::3                 0                       # Write request sizes (log2) (Count)
system.far_mem_ctrl.writePktSize::4                 0                       # Write request sizes (log2) (Count)
system.far_mem_ctrl.writePktSize::5                 0                       # Write request sizes (log2) (Count)
system.far_mem_ctrl.writePktSize::6                 0                       # Write request sizes (log2) (Count)
system.far_mem_ctrl.rdQLenPdf::0                19028                       # What read queue length does an incoming req see (Count)
system.far_mem_ctrl.rdQLenPdf::1                25868                       # What read queue length does an incoming req see (Count)
system.far_mem_ctrl.rdQLenPdf::2                30108                       # What read queue length does an incoming req see (Count)
system.far_mem_ctrl.rdQLenPdf::3                35892                       # What read queue length does an incoming req see (Count)
system.far_mem_ctrl.rdQLenPdf::4                44461                       # What read queue length does an incoming req see (Count)
system.far_mem_ctrl.rdQLenPdf::5                58323                       # What read queue length does an incoming req see (Count)
system.far_mem_ctrl.rdQLenPdf::6                76050                       # What read queue length does an incoming req see (Count)
system.far_mem_ctrl.rdQLenPdf::7                91796                       # What read queue length does an incoming req see (Count)
system.far_mem_ctrl.rdQLenPdf::8                99208                       # What read queue length does an incoming req see (Count)
system.far_mem_ctrl.rdQLenPdf::9                94619                       # What read queue length does an incoming req see (Count)
system.far_mem_ctrl.rdQLenPdf::10               82856                       # What read queue length does an incoming req see (Count)
system.far_mem_ctrl.rdQLenPdf::11               71633                       # What read queue length does an incoming req see (Count)
system.far_mem_ctrl.rdQLenPdf::12               61857                       # What read queue length does an incoming req see (Count)
system.far_mem_ctrl.rdQLenPdf::13               53686                       # What read queue length does an incoming req see (Count)
system.far_mem_ctrl.rdQLenPdf::14               47394                       # What read queue length does an incoming req see (Count)
system.far_mem_ctrl.rdQLenPdf::15               43862                       # What read queue length does an incoming req see (Count)
system.far_mem_ctrl.rdQLenPdf::16               43779                       # What read queue length does an incoming req see (Count)
system.far_mem_ctrl.rdQLenPdf::17               46384                       # What read queue length does an incoming req see (Count)
system.far_mem_ctrl.rdQLenPdf::18               51399                       # What read queue length does an incoming req see (Count)
system.far_mem_ctrl.rdQLenPdf::19               56686                       # What read queue length does an incoming req see (Count)
system.far_mem_ctrl.rdQLenPdf::20               62661                       # What read queue length does an incoming req see (Count)
system.far_mem_ctrl.rdQLenPdf::21               68414                       # What read queue length does an incoming req see (Count)
system.far_mem_ctrl.rdQLenPdf::22               72493                       # What read queue length does an incoming req see (Count)
system.far_mem_ctrl.rdQLenPdf::23               75619                       # What read queue length does an incoming req see (Count)
system.far_mem_ctrl.rdQLenPdf::24               77851                       # What read queue length does an incoming req see (Count)
system.far_mem_ctrl.rdQLenPdf::25               76626                       # What read queue length does an incoming req see (Count)
system.far_mem_ctrl.rdQLenPdf::26               73718                       # What read queue length does an incoming req see (Count)
system.far_mem_ctrl.rdQLenPdf::27               70523                       # What read queue length does an incoming req see (Count)
system.far_mem_ctrl.rdQLenPdf::28               67309                       # What read queue length does an incoming req see (Count)
system.far_mem_ctrl.rdQLenPdf::29               62550                       # What read queue length does an incoming req see (Count)
system.far_mem_ctrl.rdQLenPdf::30               57458                       # What read queue length does an incoming req see (Count)
system.far_mem_ctrl.rdQLenPdf::31               51805                       # What read queue length does an incoming req see (Count)
system.far_mem_ctrl.rdQLenPdf::32               44980                       # What read queue length does an incoming req see (Count)
system.far_mem_ctrl.rdQLenPdf::33               39591                       # What read queue length does an incoming req see (Count)
system.far_mem_ctrl.rdQLenPdf::34               34634                       # What read queue length does an incoming req see (Count)
system.far_mem_ctrl.rdQLenPdf::35               29886                       # What read queue length does an incoming req see (Count)
system.far_mem_ctrl.rdQLenPdf::36               25448                       # What read queue length does an incoming req see (Count)
system.far_mem_ctrl.rdQLenPdf::37               21897                       # What read queue length does an incoming req see (Count)
system.far_mem_ctrl.rdQLenPdf::38               18073                       # What read queue length does an incoming req see (Count)
system.far_mem_ctrl.rdQLenPdf::39               15189                       # What read queue length does an incoming req see (Count)
system.far_mem_ctrl.rdQLenPdf::40               12431                       # What read queue length does an incoming req see (Count)
system.far_mem_ctrl.rdQLenPdf::41               10190                       # What read queue length does an incoming req see (Count)
system.far_mem_ctrl.rdQLenPdf::42                8506                       # What read queue length does an incoming req see (Count)
system.far_mem_ctrl.rdQLenPdf::43                7237                       # What read queue length does an incoming req see (Count)
system.far_mem_ctrl.rdQLenPdf::44                6010                       # What read queue length does an incoming req see (Count)
system.far_mem_ctrl.rdQLenPdf::45                5086                       # What read queue length does an incoming req see (Count)
system.far_mem_ctrl.rdQLenPdf::46                4627                       # What read queue length does an incoming req see (Count)
system.far_mem_ctrl.rdQLenPdf::47                4046                       # What read queue length does an incoming req see (Count)
system.far_mem_ctrl.rdQLenPdf::48                3462                       # What read queue length does an incoming req see (Count)
system.far_mem_ctrl.rdQLenPdf::49                3079                       # What read queue length does an incoming req see (Count)
system.far_mem_ctrl.rdQLenPdf::50                2850                       # What read queue length does an incoming req see (Count)
system.far_mem_ctrl.rdQLenPdf::51                2636                       # What read queue length does an incoming req see (Count)
system.far_mem_ctrl.rdQLenPdf::52                2566                       # What read queue length does an incoming req see (Count)
system.far_mem_ctrl.rdQLenPdf::53                2672                       # What read queue length does an incoming req see (Count)
system.far_mem_ctrl.rdQLenPdf::54                2640                       # What read queue length does an incoming req see (Count)
system.far_mem_ctrl.rdQLenPdf::55                2571                       # What read queue length does an incoming req see (Count)
system.far_mem_ctrl.rdQLenPdf::56                2570                       # What read queue length does an incoming req see (Count)
system.far_mem_ctrl.rdQLenPdf::57                2533                       # What read queue length does an incoming req see (Count)
system.far_mem_ctrl.rdQLenPdf::58                2526                       # What read queue length does an incoming req see (Count)
system.far_mem_ctrl.rdQLenPdf::59                2450                       # What read queue length does an incoming req see (Count)
system.far_mem_ctrl.rdQLenPdf::60                2318                       # What read queue length does an incoming req see (Count)
system.far_mem_ctrl.rdQLenPdf::61                2250                       # What read queue length does an incoming req see (Count)
system.far_mem_ctrl.rdQLenPdf::62                2178                       # What read queue length does an incoming req see (Count)
system.far_mem_ctrl.rdQLenPdf::63               77901                       # What read queue length does an incoming req see (Count)
system.far_mem_ctrl.wrQLenPdf::0                    0                       # What write queue length does an incoming req see (Count)
system.far_mem_ctrl.wrQLenPdf::1                    0                       # What write queue length does an incoming req see (Count)
system.far_mem_ctrl.wrQLenPdf::2                    0                       # What write queue length does an incoming req see (Count)
system.far_mem_ctrl.wrQLenPdf::3                    0                       # What write queue length does an incoming req see (Count)
system.far_mem_ctrl.wrQLenPdf::4                    0                       # What write queue length does an incoming req see (Count)
system.far_mem_ctrl.wrQLenPdf::5                    0                       # What write queue length does an incoming req see (Count)
system.far_mem_ctrl.wrQLenPdf::6                    0                       # What write queue length does an incoming req see (Count)
system.far_mem_ctrl.wrQLenPdf::7                    0                       # What write queue length does an incoming req see (Count)
system.far_mem_ctrl.wrQLenPdf::8                    0                       # What write queue length does an incoming req see (Count)
system.far_mem_ctrl.wrQLenPdf::9                    0                       # What write queue length does an incoming req see (Count)
system.far_mem_ctrl.wrQLenPdf::10                   0                       # What write queue length does an incoming req see (Count)
system.far_mem_ctrl.wrQLenPdf::11                   0                       # What write queue length does an incoming req see (Count)
system.far_mem_ctrl.wrQLenPdf::12                   0                       # What write queue length does an incoming req see (Count)
system.far_mem_ctrl.wrQLenPdf::13                   0                       # What write queue length does an incoming req see (Count)
system.far_mem_ctrl.wrQLenPdf::14                   0                       # What write queue length does an incoming req see (Count)
system.far_mem_ctrl.wrQLenPdf::15                   0                       # What write queue length does an incoming req see (Count)
system.far_mem_ctrl.wrQLenPdf::16                   0                       # What write queue length does an incoming req see (Count)
system.far_mem_ctrl.wrQLenPdf::17                   0                       # What write queue length does an incoming req see (Count)
system.far_mem_ctrl.wrQLenPdf::18                   0                       # What write queue length does an incoming req see (Count)
system.far_mem_ctrl.wrQLenPdf::19                   0                       # What write queue length does an incoming req see (Count)
system.far_mem_ctrl.wrQLenPdf::20                   0                       # What write queue length does an incoming req see (Count)
system.far_mem_ctrl.wrQLenPdf::21                   0                       # What write queue length does an incoming req see (Count)
system.far_mem_ctrl.wrQLenPdf::22                   0                       # What write queue length does an incoming req see (Count)
system.far_mem_ctrl.wrQLenPdf::23                   0                       # What write queue length does an incoming req see (Count)
system.far_mem_ctrl.wrQLenPdf::24                   0                       # What write queue length does an incoming req see (Count)
system.far_mem_ctrl.wrQLenPdf::25                   0                       # What write queue length does an incoming req see (Count)
system.far_mem_ctrl.wrQLenPdf::26                   0                       # What write queue length does an incoming req see (Count)
system.far_mem_ctrl.wrQLenPdf::27                   0                       # What write queue length does an incoming req see (Count)
system.far_mem_ctrl.wrQLenPdf::28                   0                       # What write queue length does an incoming req see (Count)
system.far_mem_ctrl.wrQLenPdf::29                   0                       # What write queue length does an incoming req see (Count)
system.far_mem_ctrl.wrQLenPdf::30                   0                       # What write queue length does an incoming req see (Count)
system.far_mem_ctrl.wrQLenPdf::31                   0                       # What write queue length does an incoming req see (Count)
system.far_mem_ctrl.wrQLenPdf::32                   0                       # What write queue length does an incoming req see (Count)
system.far_mem_ctrl.wrQLenPdf::33                   0                       # What write queue length does an incoming req see (Count)
system.far_mem_ctrl.wrQLenPdf::34                   0                       # What write queue length does an incoming req see (Count)
system.far_mem_ctrl.wrQLenPdf::35                   0                       # What write queue length does an incoming req see (Count)
system.far_mem_ctrl.wrQLenPdf::36                   0                       # What write queue length does an incoming req see (Count)
system.far_mem_ctrl.wrQLenPdf::37                   0                       # What write queue length does an incoming req see (Count)
system.far_mem_ctrl.wrQLenPdf::38                   0                       # What write queue length does an incoming req see (Count)
system.far_mem_ctrl.wrQLenPdf::39                   0                       # What write queue length does an incoming req see (Count)
system.far_mem_ctrl.wrQLenPdf::40                   0                       # What write queue length does an incoming req see (Count)
system.far_mem_ctrl.wrQLenPdf::41                   0                       # What write queue length does an incoming req see (Count)
system.far_mem_ctrl.wrQLenPdf::42                   0                       # What write queue length does an incoming req see (Count)
system.far_mem_ctrl.wrQLenPdf::43                   0                       # What write queue length does an incoming req see (Count)
system.far_mem_ctrl.wrQLenPdf::44                   0                       # What write queue length does an incoming req see (Count)
system.far_mem_ctrl.wrQLenPdf::45                   0                       # What write queue length does an incoming req see (Count)
system.far_mem_ctrl.wrQLenPdf::46                   0                       # What write queue length does an incoming req see (Count)
system.far_mem_ctrl.wrQLenPdf::47                   0                       # What write queue length does an incoming req see (Count)
system.far_mem_ctrl.wrQLenPdf::48                   0                       # What write queue length does an incoming req see (Count)
system.far_mem_ctrl.wrQLenPdf::49                   0                       # What write queue length does an incoming req see (Count)
system.far_mem_ctrl.wrQLenPdf::50                   0                       # What write queue length does an incoming req see (Count)
system.far_mem_ctrl.wrQLenPdf::51                   0                       # What write queue length does an incoming req see (Count)
system.far_mem_ctrl.wrQLenPdf::52                   0                       # What write queue length does an incoming req see (Count)
system.far_mem_ctrl.wrQLenPdf::53                   0                       # What write queue length does an incoming req see (Count)
system.far_mem_ctrl.wrQLenPdf::54                   0                       # What write queue length does an incoming req see (Count)
system.far_mem_ctrl.wrQLenPdf::55                   0                       # What write queue length does an incoming req see (Count)
system.far_mem_ctrl.wrQLenPdf::56                   0                       # What write queue length does an incoming req see (Count)
system.far_mem_ctrl.wrQLenPdf::57                   0                       # What write queue length does an incoming req see (Count)
system.far_mem_ctrl.wrQLenPdf::58                   0                       # What write queue length does an incoming req see (Count)
system.far_mem_ctrl.wrQLenPdf::59                   0                       # What write queue length does an incoming req see (Count)
system.far_mem_ctrl.wrQLenPdf::60                   0                       # What write queue length does an incoming req see (Count)
system.far_mem_ctrl.wrQLenPdf::61                   0                       # What write queue length does an incoming req see (Count)
system.far_mem_ctrl.wrQLenPdf::62                   0                       # What write queue length does an incoming req see (Count)
system.far_mem_ctrl.wrQLenPdf::63                   0                       # What write queue length does an incoming req see (Count)
system.far_mem_ctrl.wrQLenPdf::64                   0                       # What write queue length does an incoming req see (Count)
system.far_mem_ctrl.wrQLenPdf::65                   0                       # What write queue length does an incoming req see (Count)
system.far_mem_ctrl.wrQLenPdf::66                   0                       # What write queue length does an incoming req see (Count)
system.far_mem_ctrl.wrQLenPdf::67                   0                       # What write queue length does an incoming req see (Count)
system.far_mem_ctrl.wrQLenPdf::68                   0                       # What write queue length does an incoming req see (Count)
system.far_mem_ctrl.wrQLenPdf::69                   0                       # What write queue length does an incoming req see (Count)
system.far_mem_ctrl.wrQLenPdf::70                   0                       # What write queue length does an incoming req see (Count)
system.far_mem_ctrl.wrQLenPdf::71                   0                       # What write queue length does an incoming req see (Count)
system.far_mem_ctrl.wrQLenPdf::72                   0                       # What write queue length does an incoming req see (Count)
system.far_mem_ctrl.wrQLenPdf::73                   0                       # What write queue length does an incoming req see (Count)
system.far_mem_ctrl.wrQLenPdf::74                   0                       # What write queue length does an incoming req see (Count)
system.far_mem_ctrl.wrQLenPdf::75                   0                       # What write queue length does an incoming req see (Count)
system.far_mem_ctrl.wrQLenPdf::76                   0                       # What write queue length does an incoming req see (Count)
system.far_mem_ctrl.wrQLenPdf::77                   0                       # What write queue length does an incoming req see (Count)
system.far_mem_ctrl.wrQLenPdf::78                   0                       # What write queue length does an incoming req see (Count)
system.far_mem_ctrl.wrQLenPdf::79                   0                       # What write queue length does an incoming req see (Count)
system.far_mem_ctrl.wrQLenPdf::80                   0                       # What write queue length does an incoming req see (Count)
system.far_mem_ctrl.wrQLenPdf::81                   0                       # What write queue length does an incoming req see (Count)
system.far_mem_ctrl.wrQLenPdf::82                   0                       # What write queue length does an incoming req see (Count)
system.far_mem_ctrl.wrQLenPdf::83                   0                       # What write queue length does an incoming req see (Count)
system.far_mem_ctrl.wrQLenPdf::84                   0                       # What write queue length does an incoming req see (Count)
system.far_mem_ctrl.wrQLenPdf::85                   0                       # What write queue length does an incoming req see (Count)
system.far_mem_ctrl.wrQLenPdf::86                   0                       # What write queue length does an incoming req see (Count)
system.far_mem_ctrl.wrQLenPdf::87                   0                       # What write queue length does an incoming req see (Count)
system.far_mem_ctrl.wrQLenPdf::88                   0                       # What write queue length does an incoming req see (Count)
system.far_mem_ctrl.wrQLenPdf::89                   0                       # What write queue length does an incoming req see (Count)
system.far_mem_ctrl.wrQLenPdf::90                   0                       # What write queue length does an incoming req see (Count)
system.far_mem_ctrl.wrQLenPdf::91                   0                       # What write queue length does an incoming req see (Count)
system.far_mem_ctrl.wrQLenPdf::92                   0                       # What write queue length does an incoming req see (Count)
system.far_mem_ctrl.wrQLenPdf::93                   0                       # What write queue length does an incoming req see (Count)
system.far_mem_ctrl.wrQLenPdf::94                   0                       # What write queue length does an incoming req see (Count)
system.far_mem_ctrl.wrQLenPdf::95                   0                       # What write queue length does an incoming req see (Count)
system.far_mem_ctrl.wrQLenPdf::96                   0                       # What write queue length does an incoming req see (Count)
system.far_mem_ctrl.wrQLenPdf::97                   0                       # What write queue length does an incoming req see (Count)
system.far_mem_ctrl.wrQLenPdf::98                   0                       # What write queue length does an incoming req see (Count)
system.far_mem_ctrl.wrQLenPdf::99                   0                       # What write queue length does an incoming req see (Count)
system.far_mem_ctrl.wrQLenPdf::100                  0                       # What write queue length does an incoming req see (Count)
system.far_mem_ctrl.wrQLenPdf::101                  0                       # What write queue length does an incoming req see (Count)
system.far_mem_ctrl.wrQLenPdf::102                  0                       # What write queue length does an incoming req see (Count)
system.far_mem_ctrl.wrQLenPdf::103                  0                       # What write queue length does an incoming req see (Count)
system.far_mem_ctrl.wrQLenPdf::104                  0                       # What write queue length does an incoming req see (Count)
system.far_mem_ctrl.wrQLenPdf::105                  0                       # What write queue length does an incoming req see (Count)
system.far_mem_ctrl.wrQLenPdf::106                  0                       # What write queue length does an incoming req see (Count)
system.far_mem_ctrl.wrQLenPdf::107                  0                       # What write queue length does an incoming req see (Count)
system.far_mem_ctrl.wrQLenPdf::108                  0                       # What write queue length does an incoming req see (Count)
system.far_mem_ctrl.wrQLenPdf::109                  0                       # What write queue length does an incoming req see (Count)
system.far_mem_ctrl.wrQLenPdf::110                  0                       # What write queue length does an incoming req see (Count)
system.far_mem_ctrl.wrQLenPdf::111                  0                       # What write queue length does an incoming req see (Count)
system.far_mem_ctrl.wrQLenPdf::112                  0                       # What write queue length does an incoming req see (Count)
system.far_mem_ctrl.wrQLenPdf::113                  0                       # What write queue length does an incoming req see (Count)
system.far_mem_ctrl.wrQLenPdf::114                  0                       # What write queue length does an incoming req see (Count)
system.far_mem_ctrl.wrQLenPdf::115                  0                       # What write queue length does an incoming req see (Count)
system.far_mem_ctrl.wrQLenPdf::116                  0                       # What write queue length does an incoming req see (Count)
system.far_mem_ctrl.wrQLenPdf::117                  0                       # What write queue length does an incoming req see (Count)
system.far_mem_ctrl.wrQLenPdf::118                  0                       # What write queue length does an incoming req see (Count)
system.far_mem_ctrl.wrQLenPdf::119                  0                       # What write queue length does an incoming req see (Count)
system.far_mem_ctrl.wrQLenPdf::120                  0                       # What write queue length does an incoming req see (Count)
system.far_mem_ctrl.wrQLenPdf::121                  0                       # What write queue length does an incoming req see (Count)
system.far_mem_ctrl.wrQLenPdf::122                  0                       # What write queue length does an incoming req see (Count)
system.far_mem_ctrl.wrQLenPdf::123                  0                       # What write queue length does an incoming req see (Count)
system.far_mem_ctrl.wrQLenPdf::124                  0                       # What write queue length does an incoming req see (Count)
system.far_mem_ctrl.wrQLenPdf::125                  0                       # What write queue length does an incoming req see (Count)
system.far_mem_ctrl.wrQLenPdf::126                  0                       # What write queue length does an incoming req see (Count)
system.far_mem_ctrl.wrQLenPdf::127                  0                       # What write queue length does an incoming req see (Count)
system.far_mem_ctrl.bytesReadWrQ                    0                       # Total number of bytes read from write queue (Byte)
system.far_mem_ctrl.bytesReadSys            150844736                       # Total read bytes from the system interface side (Byte)
system.far_mem_ctrl.bytesWrittenSys                 0                       # Total written bytes from the system interface side (Byte)
system.far_mem_ctrl.avgRdBWSys           7542232651.39492989                       # Average system read bandwidth in Byte/s ((Byte/Second))
system.far_mem_ctrl.avgWrBWSys             0.00000000                       # Average system write bandwidth in Byte/s ((Byte/Second))
system.far_mem_ctrl.totGap                19999934000                       # Total gap between requests (Tick)
system.far_mem_ctrl.avgGap                    8485.52                       # Average gap between requests ((Tick/Count))
system.far_mem_ctrl.requestorReadBytes::writebacks    150844672                       # Per-requestor bytes read from memory (Byte)
system.far_mem_ctrl.requestorReadRate::writebacks 7542229451.396690368652                       # Per-requestor bytes read from memory rate ((Byte/Second))
system.far_mem_ctrl.requestorReadAccesses::writebacks      2356949                       # Per-requestor read serviced memory accesses (Count)
system.far_mem_ctrl.requestorReadTotalLat::writebacks 234975023061                       # Per-requestor read total memory access latency (Tick)
system.far_mem_ctrl.requestorReadAvgLat::writebacks     99694.57                       # Per-requestor read average memory access latency ((Tick/Count))
system.far_mem_ctrl.dram.bytesRead::writebacks    150844032                       # Number of bytes read from this memory (Byte)
system.far_mem_ctrl.dram.bytesRead::total    150844032                       # Number of bytes read from this memory (Byte)
system.far_mem_ctrl.dram.numReads::writebacks      2356938                       # Number of read requests responded to by this memory (Count)
system.far_mem_ctrl.dram.numReads::total      2356938                       # Number of read requests responded to by this memory (Count)
system.far_mem_ctrl.dram.bwRead::writebacks   7542197451                       # Total read bandwidth from this memory ((Byte/Second))
system.far_mem_ctrl.dram.bwRead::total     7542197451                       # Total read bandwidth from this memory ((Byte/Second))
system.far_mem_ctrl.dram.bwTotal::writebacks   7542197451                       # Total bandwidth to/from this memory ((Byte/Second))
system.far_mem_ctrl.dram.bwTotal::total    7542197451                       # Total bandwidth to/from this memory ((Byte/Second))
system.far_mem_ctrl.dram.readBursts           2356948                       # Number of DRAM read bursts (Count)
system.far_mem_ctrl.dram.writeBursts                0                       # Number of DRAM write bursts (Count)
system.far_mem_ctrl.dram.perBankRdBursts::0        73201                       # Per bank write bursts (Count)
system.far_mem_ctrl.dram.perBankRdBursts::1        73376                       # Per bank write bursts (Count)
system.far_mem_ctrl.dram.perBankRdBursts::2        73729                       # Per bank write bursts (Count)
system.far_mem_ctrl.dram.perBankRdBursts::3        73595                       # Per bank write bursts (Count)
system.far_mem_ctrl.dram.perBankRdBursts::4        74167                       # Per bank write bursts (Count)
system.far_mem_ctrl.dram.perBankRdBursts::5        73677                       # Per bank write bursts (Count)
system.far_mem_ctrl.dram.perBankRdBursts::6        73222                       # Per bank write bursts (Count)
system.far_mem_ctrl.dram.perBankRdBursts::7        73581                       # Per bank write bursts (Count)
system.far_mem_ctrl.dram.perBankRdBursts::8        73403                       # Per bank write bursts (Count)
system.far_mem_ctrl.dram.perBankRdBursts::9        73900                       # Per bank write bursts (Count)
system.far_mem_ctrl.dram.perBankRdBursts::10        73871                       # Per bank write bursts (Count)
system.far_mem_ctrl.dram.perBankRdBursts::11        73454                       # Per bank write bursts (Count)
system.far_mem_ctrl.dram.perBankRdBursts::12        74193                       # Per bank write bursts (Count)
system.far_mem_ctrl.dram.perBankRdBursts::13        73110                       # Per bank write bursts (Count)
system.far_mem_ctrl.dram.perBankRdBursts::14        73707                       # Per bank write bursts (Count)
system.far_mem_ctrl.dram.perBankRdBursts::15        73612                       # Per bank write bursts (Count)
system.far_mem_ctrl.dram.perBankRdBursts::16        73474                       # Per bank write bursts (Count)
system.far_mem_ctrl.dram.perBankRdBursts::17        73569                       # Per bank write bursts (Count)
system.far_mem_ctrl.dram.perBankRdBursts::18        73471                       # Per bank write bursts (Count)
system.far_mem_ctrl.dram.perBankRdBursts::19        73902                       # Per bank write bursts (Count)
system.far_mem_ctrl.dram.perBankRdBursts::20        73717                       # Per bank write bursts (Count)
system.far_mem_ctrl.dram.perBankRdBursts::21        73902                       # Per bank write bursts (Count)
system.far_mem_ctrl.dram.perBankRdBursts::22        73630                       # Per bank write bursts (Count)
system.far_mem_ctrl.dram.perBankRdBursts::23        74009                       # Per bank write bursts (Count)
system.far_mem_ctrl.dram.perBankRdBursts::24        73676                       # Per bank write bursts (Count)
system.far_mem_ctrl.dram.perBankRdBursts::25        73495                       # Per bank write bursts (Count)
system.far_mem_ctrl.dram.perBankRdBursts::26        73162                       # Per bank write bursts (Count)
system.far_mem_ctrl.dram.perBankRdBursts::27        73695                       # Per bank write bursts (Count)
system.far_mem_ctrl.dram.perBankRdBursts::28        73604                       # Per bank write bursts (Count)
system.far_mem_ctrl.dram.perBankRdBursts::29        73716                       # Per bank write bursts (Count)
system.far_mem_ctrl.dram.perBankRdBursts::30        73912                       # Per bank write bursts (Count)
system.far_mem_ctrl.dram.perBankRdBursts::31        74216                       # Per bank write bursts (Count)
system.far_mem_ctrl.dram.perBankWrBursts::0            0                       # Per bank write bursts (Count)
system.far_mem_ctrl.dram.perBankWrBursts::1            0                       # Per bank write bursts (Count)
system.far_mem_ctrl.dram.perBankWrBursts::2            0                       # Per bank write bursts (Count)
system.far_mem_ctrl.dram.perBankWrBursts::3            0                       # Per bank write bursts (Count)
system.far_mem_ctrl.dram.perBankWrBursts::4            0                       # Per bank write bursts (Count)
system.far_mem_ctrl.dram.perBankWrBursts::5            0                       # Per bank write bursts (Count)
system.far_mem_ctrl.dram.perBankWrBursts::6            0                       # Per bank write bursts (Count)
system.far_mem_ctrl.dram.perBankWrBursts::7            0                       # Per bank write bursts (Count)
system.far_mem_ctrl.dram.perBankWrBursts::8            0                       # Per bank write bursts (Count)
system.far_mem_ctrl.dram.perBankWrBursts::9            0                       # Per bank write bursts (Count)
system.far_mem_ctrl.dram.perBankWrBursts::10            0                       # Per bank write bursts (Count)
system.far_mem_ctrl.dram.perBankWrBursts::11            0                       # Per bank write bursts (Count)
system.far_mem_ctrl.dram.perBankWrBursts::12            0                       # Per bank write bursts (Count)
system.far_mem_ctrl.dram.perBankWrBursts::13            0                       # Per bank write bursts (Count)
system.far_mem_ctrl.dram.perBankWrBursts::14            0                       # Per bank write bursts (Count)
system.far_mem_ctrl.dram.perBankWrBursts::15            0                       # Per bank write bursts (Count)
system.far_mem_ctrl.dram.perBankWrBursts::16            0                       # Per bank write bursts (Count)
system.far_mem_ctrl.dram.perBankWrBursts::17            0                       # Per bank write bursts (Count)
system.far_mem_ctrl.dram.perBankWrBursts::18            0                       # Per bank write bursts (Count)
system.far_mem_ctrl.dram.perBankWrBursts::19            0                       # Per bank write bursts (Count)
system.far_mem_ctrl.dram.perBankWrBursts::20            0                       # Per bank write bursts (Count)
system.far_mem_ctrl.dram.perBankWrBursts::21            0                       # Per bank write bursts (Count)
system.far_mem_ctrl.dram.perBankWrBursts::22            0                       # Per bank write bursts (Count)
system.far_mem_ctrl.dram.perBankWrBursts::23            0                       # Per bank write bursts (Count)
system.far_mem_ctrl.dram.perBankWrBursts::24            0                       # Per bank write bursts (Count)
system.far_mem_ctrl.dram.perBankWrBursts::25            0                       # Per bank write bursts (Count)
system.far_mem_ctrl.dram.perBankWrBursts::26            0                       # Per bank write bursts (Count)
system.far_mem_ctrl.dram.perBankWrBursts::27            0                       # Per bank write bursts (Count)
system.far_mem_ctrl.dram.perBankWrBursts::28            0                       # Per bank write bursts (Count)
system.far_mem_ctrl.dram.perBankWrBursts::29            0                       # Per bank write bursts (Count)
system.far_mem_ctrl.dram.perBankWrBursts::30            0                       # Per bank write bursts (Count)
system.far_mem_ctrl.dram.perBankWrBursts::31            0                       # Per bank write bursts (Count)
system.far_mem_ctrl.dram.totQLat         193747288645                       # Total ticks spent queuing (Tick)
system.far_mem_ctrl.dram.totBusLat         7853350736                       # Total ticks spent in databus transfers (Tick)
system.far_mem_ctrl.dram.totMemAccLat    234975023061                       # Total ticks spent from burst creation until serviced by the DRAM (Tick)
system.far_mem_ctrl.dram.avgQLat             82202.61                       # Average queueing delay per DRAM burst ((Tick/Count))
system.far_mem_ctrl.dram.avgBusLat            3332.00                       # Average bus latency per DRAM burst ((Tick/Count))
system.far_mem_ctrl.dram.avgMemAccLat        99694.61                       # Average memory access latency per DRAM burst ((Tick/Count))
system.far_mem_ctrl.dram.readRowHits              252                       # Number of row buffer hits during reads (Count)
system.far_mem_ctrl.dram.writeRowHits               0                       # Number of row buffer hits during writes (Count)
system.far_mem_ctrl.dram.readRowHitRate          0.01                       # Row buffer hit rate for reads (Ratio)
system.far_mem_ctrl.dram.writeRowHitRate          nan                       # Row buffer hit rate for writes (Ratio)
system.far_mem_ctrl.dram.bytesPerActivate::samples      2356665                       # Bytes accessed per row activation (Byte)
system.far_mem_ctrl.dram.bytesPerActivate::mean    64.006844                       # Bytes accessed per row activation (Byte)
system.far_mem_ctrl.dram.bytesPerActivate::gmean    64.004744                       # Bytes accessed per row activation (Byte)
system.far_mem_ctrl.dram.bytesPerActivate::stdev     0.661772                       # Bytes accessed per row activation (Byte)
system.far_mem_ctrl.dram.bytesPerActivate::64-79      2356413     99.99%     99.99% # Bytes accessed per row activation (Byte)
system.far_mem_ctrl.dram.bytesPerActivate::128-143          252      0.01%    100.00% # Bytes accessed per row activation (Byte)
system.far_mem_ctrl.dram.bytesPerActivate::total      2356665                       # Bytes accessed per row activation (Byte)
system.far_mem_ctrl.dram.bytesRead          150844672                       # Total bytes read (Byte)
system.far_mem_ctrl.dram.bytesWritten               0                       # Total bytes written (Byte)
system.far_mem_ctrl.dram.avgRdBW          7542.229451                       # Average DRAM read bandwidth in MiBytes/s ((Byte/Second))
system.far_mem_ctrl.dram.avgWrBW                    0                       # Average DRAM write bandwidth in MiBytes/s ((Byte/Second))
system.far_mem_ctrl.dram.peakBW              19207.00                       # Theoretical peak bandwidth in MiByte/s ((Byte/Second))
system.far_mem_ctrl.dram.busUtil                39.27                       # Data bus utilization in percentage (Ratio)
system.far_mem_ctrl.dram.busUtilRead            39.27                       # Data bus utilization in percentage for reads (Ratio)
system.far_mem_ctrl.dram.busUtilWrite            0.00                       # Data bus utilization in percentage for writes (Ratio)
system.far_mem_ctrl.dram.pageHitRate             0.01                       # Row buffer hit rate, read and write combined (Ratio)
system.far_mem_ctrl.dram.power_state.pwrStateResidencyTicks::UNDEFINED  20000011001                       # Cumulative time (in ticks) in various power states (Tick)
system.far_mem_ctrl.dram.rank0.actEnergy 3672845074.079998                       # Energy for activate commands per rank (pJ) (Joule)
system.far_mem_ctrl.dram.rank0.preEnergy 4882934096.779200                       # Energy for precharge commands per rank (pJ) (Joule)
system.far_mem_ctrl.dram.rank0.readEnergy 4954187308.089605                       # Energy for read commands per rank (pJ) (Joule)
system.far_mem_ctrl.dram.rank0.writeEnergy            0                       # Energy for write commands per rank (pJ) (Joule)
system.far_mem_ctrl.dram.rank0.refreshEnergy 3557649746.649648                       # Energy for refresh commands per rank (pJ) (Joule)
system.far_mem_ctrl.dram.rank0.actBackEnergy 16841964858.263971                       # Energy for active background per rank (pJ) (Joule)
system.far_mem_ctrl.dram.rank0.preBackEnergy 115288937.971199                       # Energy for precharge background per rank (pJ) (Joule)
system.far_mem_ctrl.dram.rank0.actPowerDownEnergy            0                       # Energy for active power-down per rank (pJ) (Joule)
system.far_mem_ctrl.dram.rank0.prePowerDownEnergy            0                       # Energy for precharge power-down per rank (pJ) (Joule)
system.far_mem_ctrl.dram.rank0.selfRefreshEnergy            0                       # Energy for self refresh per rank (pJ) (Joule)
system.far_mem_ctrl.dram.rank0.totalEnergy 34024870021.833557                       # Total energy per rank (pJ) (Joule)
system.far_mem_ctrl.dram.rank0.averagePower  1701.242565                       # Core power per rank (mW) (Watt)
system.far_mem_ctrl.dram.rank0.totalIdleTime            0                       # Total Idle time Per DRAM Rank (Tick)
system.far_mem_ctrl.dram.rank0.pwrStateTime::IDLE    105265132                       # Time in different power states (Tick)
system.far_mem_ctrl.dram.rank0.pwrStateTime::REF    898800000                       # Time in different power states (Tick)
system.far_mem_ctrl.dram.rank0.pwrStateTime::SREF            0                       # Time in different power states (Tick)
system.far_mem_ctrl.dram.rank0.pwrStateTime::PRE_PDN            0                       # Time in different power states (Tick)
system.far_mem_ctrl.dram.rank0.pwrStateTime::ACT  18995945869                       # Time in different power states (Tick)
system.far_mem_ctrl.dram.rank0.pwrStateTime::ACT_PDN            0                       # Time in different power states (Tick)
system.far_mem_ctrl.dram.rank1.actEnergy 3677099051.807993                       # Energy for activate commands per rank (pJ) (Joule)
system.far_mem_ctrl.dram.rank1.preEnergy 4888593851.971201                       # Energy for precharge commands per rank (pJ) (Joule)
system.far_mem_ctrl.dram.rank1.readEnergy 4959861629.452791                       # Energy for read commands per rank (pJ) (Joule)
system.far_mem_ctrl.dram.rank1.writeEnergy            0                       # Energy for write commands per rank (pJ) (Joule)
system.far_mem_ctrl.dram.rank1.refreshEnergy 3557649746.649648                       # Energy for refresh commands per rank (pJ) (Joule)
system.far_mem_ctrl.dram.rank1.actBackEnergy 16842225298.046352                       # Energy for active background per rank (pJ) (Joule)
system.far_mem_ctrl.dram.rank1.preBackEnergy 115088826.047999                       # Energy for precharge background per rank (pJ) (Joule)
system.far_mem_ctrl.dram.rank1.actPowerDownEnergy            0                       # Energy for active power-down per rank (pJ) (Joule)
system.far_mem_ctrl.dram.rank1.prePowerDownEnergy            0                       # Energy for precharge power-down per rank (pJ) (Joule)
system.far_mem_ctrl.dram.rank1.selfRefreshEnergy            0                       # Energy for self refresh per rank (pJ) (Joule)
system.far_mem_ctrl.dram.rank1.totalEnergy 34040518403.975948                       # Total energy per rank (pJ) (Joule)
system.far_mem_ctrl.dram.rank1.averagePower  1702.024984                       # Core power per rank (mW) (Watt)
system.far_mem_ctrl.dram.rank1.totalIdleTime            0                       # Total Idle time Per DRAM Rank (Tick)
system.far_mem_ctrl.dram.rank1.pwrStateTime::IDLE    104726490                       # Time in different power states (Tick)
system.far_mem_ctrl.dram.rank1.pwrStateTime::REF    898800000                       # Time in different power states (Tick)
system.far_mem_ctrl.dram.rank1.pwrStateTime::SREF            0                       # Time in different power states (Tick)
system.far_mem_ctrl.dram.rank1.pwrStateTime::PRE_PDN            0                       # Time in different power states (Tick)
system.far_mem_ctrl.dram.rank1.pwrStateTime::ACT  18996484511                       # Time in different power states (Tick)
system.far_mem_ctrl.dram.rank1.pwrStateTime::ACT_PDN            0                       # Time in different power states (Tick)
system.far_mem_ctrl.power_state.pwrStateResidencyTicks::UNDEFINED  20000011001                       # Cumulative time (in ticks) in various power states (Tick)
system.generator.numSuppressed                      0                       # Number of suppressed packets to non-memory space (Count)
system.generator.numPackets                   3554477                       # Number of packets generated (Count)
system.generator.numRetries                   3550458                       # Number of retries (Count)
system.generator.retryTicks               19960415238                       # Time spent waiting due to back-pressure (Tick)
system.generator.bytesRead                  150843712                       # Number of bytes read (Byte)
system.generator.bytesWritten                76632000                       # Number of bytes written (Byte)
system.generator.totalReadLatency        2474717993304                       # Total latency of read requests (Tick)
system.generator.totalWriteLatency        30928167762                       # Total latency of write requests (Tick)
system.generator.totalReads                   2356933                       # Total num of reads (Count)
system.generator.totalWrites                  1197375                       # Total num of writes (Count)
system.generator.avgReadLatency          1049973.840285                       # Avg latency of read requests ((Tick/Count))
system.generator.avgWriteLatency         25829.976208                       # Avg latency of write requests ((Tick/Count))
system.generator.readBW                  7542181451.423093                       # Read bandwidth ((Byte/Second))
system.generator.writeBW                 3831597892.429579                       # Write bandwidth ((Byte/Second))
system.generator.power_state.pwrStateResidencyTicks::UNDEFINED  20000011001                       # Cumulative time (in ticks) in various power states (Tick)
system.loc_mem_ctrl.avgPriority_writebacks::samples  14217040.00                       # Average QoS priority value for accepted requests (Count)
system.loc_mem_ctrl.priorityMinLatency   0.000000019000                       # per QoS priority minimum request to response latency (Second)
system.loc_mem_ctrl.priorityMaxLatency   0.000003424000                       # per QoS priority maximum request to response latency (Second)
system.loc_mem_ctrl.numReadWriteTurnArounds            0                       # Number of turnarounds from READ to WRITE (Count)
system.loc_mem_ctrl.numWriteReadTurnArounds            0                       # Number of turnarounds from WRITE to READ (Count)
system.loc_mem_ctrl.numStayReadState         14341978                       # Number of times bus staying in READ state (Count)
system.loc_mem_ctrl.numStayWriteState               0                       # Number of times bus staying in WRITE state (Count)
system.loc_mem_ctrl.readReqs                  3554299                       # Number of read requests accepted (Count)
system.loc_mem_ctrl.writeReqs                 3554223                       # Number of write requests accepted (Count)
system.loc_mem_ctrl.readBursts                7108598                       # Number of controller read bursts, including those serviced by the write queue (Count)
system.loc_mem_ctrl.writeBursts               7108446                       # Number of controller write bursts, including those merged in the write queue (Count)
system.loc_mem_ctrl.servicedByWrQ                   4                       # Number of controller read bursts serviced by the write queue (Count)
system.loc_mem_ctrl.mergedWrBursts                  0                       # Number of controller write bursts merged with an existing one (Count)
system.loc_mem_ctrl.avgRdQLen                   91.29                       # Average read queue length when enqueuing ((Count/Tick))
system.loc_mem_ctrl.avgWrQLen                   80.14                       # Average write queue length when enqueuing ((Count/Tick))
system.loc_mem_ctrl.numRdRetry                8922469                       # Number of times read queue was full causing retry (Count)
system.loc_mem_ctrl.numWrRetry                9541550                       # Number of times write queue was full causing retry (Count)
system.loc_mem_ctrl.readPktSize::0                  0                       # Read request sizes (log2) (Count)
system.loc_mem_ctrl.readPktSize::1                  0                       # Read request sizes (log2) (Count)
system.loc_mem_ctrl.readPktSize::2                  0                       # Read request sizes (log2) (Count)
system.loc_mem_ctrl.readPktSize::3                  0                       # Read request sizes (log2) (Count)
system.loc_mem_ctrl.readPktSize::4                  0                       # Read request sizes (log2) (Count)
system.loc_mem_ctrl.readPktSize::5            7108598                       # Read request sizes (log2) (Count)
system.loc_mem_ctrl.readPktSize::6                  0                       # Read request sizes (log2) (Count)
system.loc_mem_ctrl.writePktSize::0                 0                       # Write request sizes (log2) (Count)
system.loc_mem_ctrl.writePktSize::1                 0                       # Write request sizes (log2) (Count)
system.loc_mem_ctrl.writePktSize::2                 0                       # Write request sizes (log2) (Count)
system.loc_mem_ctrl.writePktSize::3                 0                       # Write request sizes (log2) (Count)
system.loc_mem_ctrl.writePktSize::4                 0                       # Write request sizes (log2) (Count)
system.loc_mem_ctrl.writePktSize::5           7108446                       # Write request sizes (log2) (Count)
system.loc_mem_ctrl.writePktSize::6                 0                       # Write request sizes (log2) (Count)
system.loc_mem_ctrl.rdQLenPdf::0                 1796                       # What read queue length does an incoming req see (Count)
system.loc_mem_ctrl.rdQLenPdf::1                 2074                       # What read queue length does an incoming req see (Count)
system.loc_mem_ctrl.rdQLenPdf::2                 6872                       # What read queue length does an incoming req see (Count)
system.loc_mem_ctrl.rdQLenPdf::3                 8215                       # What read queue length does an incoming req see (Count)
system.loc_mem_ctrl.rdQLenPdf::4                 9334                       # What read queue length does an incoming req see (Count)
system.loc_mem_ctrl.rdQLenPdf::5                10364                       # What read queue length does an incoming req see (Count)
system.loc_mem_ctrl.rdQLenPdf::6                10109                       # What read queue length does an incoming req see (Count)
system.loc_mem_ctrl.rdQLenPdf::7                10608                       # What read queue length does an incoming req see (Count)
system.loc_mem_ctrl.rdQLenPdf::8                10783                       # What read queue length does an incoming req see (Count)
system.loc_mem_ctrl.rdQLenPdf::9                11029                       # What read queue length does an incoming req see (Count)
system.loc_mem_ctrl.rdQLenPdf::10               11095                       # What read queue length does an incoming req see (Count)
system.loc_mem_ctrl.rdQLenPdf::11               11404                       # What read queue length does an incoming req see (Count)
system.loc_mem_ctrl.rdQLenPdf::12               11527                       # What read queue length does an incoming req see (Count)
system.loc_mem_ctrl.rdQLenPdf::13               11642                       # What read queue length does an incoming req see (Count)
system.loc_mem_ctrl.rdQLenPdf::14               11714                       # What read queue length does an incoming req see (Count)
system.loc_mem_ctrl.rdQLenPdf::15               11887                       # What read queue length does an incoming req see (Count)
system.loc_mem_ctrl.rdQLenPdf::16               12138                       # What read queue length does an incoming req see (Count)
system.loc_mem_ctrl.rdQLenPdf::17               12363                       # What read queue length does an incoming req see (Count)
system.loc_mem_ctrl.rdQLenPdf::18               12460                       # What read queue length does an incoming req see (Count)
system.loc_mem_ctrl.rdQLenPdf::19               12523                       # What read queue length does an incoming req see (Count)
system.loc_mem_ctrl.rdQLenPdf::20               12619                       # What read queue length does an incoming req see (Count)
system.loc_mem_ctrl.rdQLenPdf::21               12797                       # What read queue length does an incoming req see (Count)
system.loc_mem_ctrl.rdQLenPdf::22               12833                       # What read queue length does an incoming req see (Count)
system.loc_mem_ctrl.rdQLenPdf::23               12910                       # What read queue length does an incoming req see (Count)
system.loc_mem_ctrl.rdQLenPdf::24               12811                       # What read queue length does an incoming req see (Count)
system.loc_mem_ctrl.rdQLenPdf::25               12840                       # What read queue length does an incoming req see (Count)
system.loc_mem_ctrl.rdQLenPdf::26               12951                       # What read queue length does an incoming req see (Count)
system.loc_mem_ctrl.rdQLenPdf::27               13044                       # What read queue length does an incoming req see (Count)
system.loc_mem_ctrl.rdQLenPdf::28               13091                       # What read queue length does an incoming req see (Count)
system.loc_mem_ctrl.rdQLenPdf::29               13139                       # What read queue length does an incoming req see (Count)
system.loc_mem_ctrl.rdQLenPdf::30               13043                       # What read queue length does an incoming req see (Count)
system.loc_mem_ctrl.rdQLenPdf::31               13224                       # What read queue length does an incoming req see (Count)
system.loc_mem_ctrl.rdQLenPdf::32               13308                       # What read queue length does an incoming req see (Count)
system.loc_mem_ctrl.rdQLenPdf::33               13297                       # What read queue length does an incoming req see (Count)
system.loc_mem_ctrl.rdQLenPdf::34               13418                       # What read queue length does an incoming req see (Count)
system.loc_mem_ctrl.rdQLenPdf::35               13523                       # What read queue length does an incoming req see (Count)
system.loc_mem_ctrl.rdQLenPdf::36               13315                       # What read queue length does an incoming req see (Count)
system.loc_mem_ctrl.rdQLenPdf::37               13333                       # What read queue length does an incoming req see (Count)
system.loc_mem_ctrl.rdQLenPdf::38               13411                       # What read queue length does an incoming req see (Count)
system.loc_mem_ctrl.rdQLenPdf::39               13321                       # What read queue length does an incoming req see (Count)
system.loc_mem_ctrl.rdQLenPdf::40               23965                       # What read queue length does an incoming req see (Count)
system.loc_mem_ctrl.rdQLenPdf::41               28248                       # What read queue length does an incoming req see (Count)
system.loc_mem_ctrl.rdQLenPdf::42               26773                       # What read queue length does an incoming req see (Count)
system.loc_mem_ctrl.rdQLenPdf::43               27287                       # What read queue length does an incoming req see (Count)
system.loc_mem_ctrl.rdQLenPdf::44               29040                       # What read queue length does an incoming req see (Count)
system.loc_mem_ctrl.rdQLenPdf::45               28759                       # What read queue length does an incoming req see (Count)
system.loc_mem_ctrl.rdQLenPdf::46               29397                       # What read queue length does an incoming req see (Count)
system.loc_mem_ctrl.rdQLenPdf::47               30271                       # What read queue length does an incoming req see (Count)
system.loc_mem_ctrl.rdQLenPdf::48               30960                       # What read queue length does an incoming req see (Count)
system.loc_mem_ctrl.rdQLenPdf::49               31134                       # What read queue length does an incoming req see (Count)
system.loc_mem_ctrl.rdQLenPdf::50               32001                       # What read queue length does an incoming req see (Count)
system.loc_mem_ctrl.rdQLenPdf::51               32443                       # What read queue length does an incoming req see (Count)
system.loc_mem_ctrl.rdQLenPdf::52               33459                       # What read queue length does an incoming req see (Count)
system.loc_mem_ctrl.rdQLenPdf::53               34586                       # What read queue length does an incoming req see (Count)
system.loc_mem_ctrl.rdQLenPdf::54               35388                       # What read queue length does an incoming req see (Count)
system.loc_mem_ctrl.rdQLenPdf::55               36170                       # What read queue length does an incoming req see (Count)
system.loc_mem_ctrl.rdQLenPdf::56               37540                       # What read queue length does an incoming req see (Count)
system.loc_mem_ctrl.rdQLenPdf::57               38585                       # What read queue length does an incoming req see (Count)
system.loc_mem_ctrl.rdQLenPdf::58               39687                       # What read queue length does an incoming req see (Count)
system.loc_mem_ctrl.rdQLenPdf::59               41101                       # What read queue length does an incoming req see (Count)
system.loc_mem_ctrl.rdQLenPdf::60               43110                       # What read queue length does an incoming req see (Count)
system.loc_mem_ctrl.rdQLenPdf::61               44662                       # What read queue length does an incoming req see (Count)
system.loc_mem_ctrl.rdQLenPdf::62               64912                       # What read queue length does an incoming req see (Count)
system.loc_mem_ctrl.rdQLenPdf::63               70721                       # What read queue length does an incoming req see (Count)
system.loc_mem_ctrl.rdQLenPdf::64               73216                       # What read queue length does an incoming req see (Count)
system.loc_mem_ctrl.rdQLenPdf::65               78755                       # What read queue length does an incoming req see (Count)
system.loc_mem_ctrl.rdQLenPdf::66               80406                       # What read queue length does an incoming req see (Count)
system.loc_mem_ctrl.rdQLenPdf::67               88069                       # What read queue length does an incoming req see (Count)
system.loc_mem_ctrl.rdQLenPdf::68               92117                       # What read queue length does an incoming req see (Count)
system.loc_mem_ctrl.rdQLenPdf::69               98308                       # What read queue length does an incoming req see (Count)
system.loc_mem_ctrl.rdQLenPdf::70              105300                       # What read queue length does an incoming req see (Count)
system.loc_mem_ctrl.rdQLenPdf::71              110463                       # What read queue length does an incoming req see (Count)
system.loc_mem_ctrl.rdQLenPdf::72              116934                       # What read queue length does an incoming req see (Count)
system.loc_mem_ctrl.rdQLenPdf::73              122219                       # What read queue length does an incoming req see (Count)
system.loc_mem_ctrl.rdQLenPdf::74              127719                       # What read queue length does an incoming req see (Count)
system.loc_mem_ctrl.rdQLenPdf::75              132184                       # What read queue length does an incoming req see (Count)
system.loc_mem_ctrl.rdQLenPdf::76              137583                       # What read queue length does an incoming req see (Count)
system.loc_mem_ctrl.rdQLenPdf::77              140787                       # What read queue length does an incoming req see (Count)
system.loc_mem_ctrl.rdQLenPdf::78              144186                       # What read queue length does an incoming req see (Count)
system.loc_mem_ctrl.rdQLenPdf::79              146334                       # What read queue length does an incoming req see (Count)
system.loc_mem_ctrl.rdQLenPdf::80              148319                       # What read queue length does an incoming req see (Count)
system.loc_mem_ctrl.rdQLenPdf::81              148993                       # What read queue length does an incoming req see (Count)
system.loc_mem_ctrl.rdQLenPdf::82              150327                       # What read queue length does an incoming req see (Count)
system.loc_mem_ctrl.rdQLenPdf::83              150580                       # What read queue length does an incoming req see (Count)
system.loc_mem_ctrl.rdQLenPdf::84              151177                       # What read queue length does an incoming req see (Count)
system.loc_mem_ctrl.rdQLenPdf::85              151079                       # What read queue length does an incoming req see (Count)
system.loc_mem_ctrl.rdQLenPdf::86              150675                       # What read queue length does an incoming req see (Count)
system.loc_mem_ctrl.rdQLenPdf::87              150150                       # What read queue length does an incoming req see (Count)
system.loc_mem_ctrl.rdQLenPdf::88              149603                       # What read queue length does an incoming req see (Count)
system.loc_mem_ctrl.rdQLenPdf::89              149165                       # What read queue length does an incoming req see (Count)
system.loc_mem_ctrl.rdQLenPdf::90              148881                       # What read queue length does an incoming req see (Count)
system.loc_mem_ctrl.rdQLenPdf::91              148109                       # What read queue length does an incoming req see (Count)
system.loc_mem_ctrl.rdQLenPdf::92              146531                       # What read queue length does an incoming req see (Count)
system.loc_mem_ctrl.rdQLenPdf::93              144807                       # What read queue length does an incoming req see (Count)
system.loc_mem_ctrl.rdQLenPdf::94              143630                       # What read queue length does an incoming req see (Count)
system.loc_mem_ctrl.rdQLenPdf::95              142725                       # What read queue length does an incoming req see (Count)
system.loc_mem_ctrl.rdQLenPdf::96              141296                       # What read queue length does an incoming req see (Count)
system.loc_mem_ctrl.rdQLenPdf::97              141080                       # What read queue length does an incoming req see (Count)
system.loc_mem_ctrl.rdQLenPdf::98              139656                       # What read queue length does an incoming req see (Count)
system.loc_mem_ctrl.rdQLenPdf::99              138405                       # What read queue length does an incoming req see (Count)
system.loc_mem_ctrl.rdQLenPdf::100             136559                       # What read queue length does an incoming req see (Count)
system.loc_mem_ctrl.rdQLenPdf::101             134373                       # What read queue length does an incoming req see (Count)
system.loc_mem_ctrl.rdQLenPdf::102             130738                       # What read queue length does an incoming req see (Count)
system.loc_mem_ctrl.rdQLenPdf::103             121312                       # What read queue length does an incoming req see (Count)
system.loc_mem_ctrl.rdQLenPdf::104              94319                       # What read queue length does an incoming req see (Count)
system.loc_mem_ctrl.rdQLenPdf::105              55686                       # What read queue length does an incoming req see (Count)
system.loc_mem_ctrl.rdQLenPdf::106              24671                       # What read queue length does an incoming req see (Count)
system.loc_mem_ctrl.rdQLenPdf::107              21698                       # What read queue length does an incoming req see (Count)
system.loc_mem_ctrl.rdQLenPdf::108              19962                       # What read queue length does an incoming req see (Count)
system.loc_mem_ctrl.rdQLenPdf::109              19600                       # What read queue length does an incoming req see (Count)
system.loc_mem_ctrl.rdQLenPdf::110              18791                       # What read queue length does an incoming req see (Count)
system.loc_mem_ctrl.rdQLenPdf::111              18483                       # What read queue length does an incoming req see (Count)
system.loc_mem_ctrl.rdQLenPdf::112              18227                       # What read queue length does an incoming req see (Count)
system.loc_mem_ctrl.rdQLenPdf::113              18094                       # What read queue length does an incoming req see (Count)
system.loc_mem_ctrl.rdQLenPdf::114              17476                       # What read queue length does an incoming req see (Count)
system.loc_mem_ctrl.rdQLenPdf::115              17250                       # What read queue length does an incoming req see (Count)
system.loc_mem_ctrl.rdQLenPdf::116              16979                       # What read queue length does an incoming req see (Count)
system.loc_mem_ctrl.rdQLenPdf::117              16812                       # What read queue length does an incoming req see (Count)
system.loc_mem_ctrl.rdQLenPdf::118              16244                       # What read queue length does an incoming req see (Count)
system.loc_mem_ctrl.rdQLenPdf::119              16070                       # What read queue length does an incoming req see (Count)
system.loc_mem_ctrl.rdQLenPdf::120              15716                       # What read queue length does an incoming req see (Count)
system.loc_mem_ctrl.rdQLenPdf::121              15434                       # What read queue length does an incoming req see (Count)
system.loc_mem_ctrl.rdQLenPdf::122              14859                       # What read queue length does an incoming req see (Count)
system.loc_mem_ctrl.rdQLenPdf::123              14743                       # What read queue length does an incoming req see (Count)
system.loc_mem_ctrl.rdQLenPdf::124              14353                       # What read queue length does an incoming req see (Count)
system.loc_mem_ctrl.rdQLenPdf::125              14036                       # What read queue length does an incoming req see (Count)
system.loc_mem_ctrl.rdQLenPdf::126              12987                       # What read queue length does an incoming req see (Count)
system.loc_mem_ctrl.rdQLenPdf::127              10990                       # What read queue length does an incoming req see (Count)
system.loc_mem_ctrl.wrQLenPdf::0                 2389                       # What write queue length does an incoming req see (Count)
system.loc_mem_ctrl.wrQLenPdf::1                 3265                       # What write queue length does an incoming req see (Count)
system.loc_mem_ctrl.wrQLenPdf::2                 3699                       # What write queue length does an incoming req see (Count)
system.loc_mem_ctrl.wrQLenPdf::3                 4484                       # What write queue length does an incoming req see (Count)
system.loc_mem_ctrl.wrQLenPdf::4                 4978                       # What write queue length does an incoming req see (Count)
system.loc_mem_ctrl.wrQLenPdf::5                 5613                       # What write queue length does an incoming req see (Count)
system.loc_mem_ctrl.wrQLenPdf::6                 6041                       # What write queue length does an incoming req see (Count)
system.loc_mem_ctrl.wrQLenPdf::7                 6722                       # What write queue length does an incoming req see (Count)
system.loc_mem_ctrl.wrQLenPdf::8                 7280                       # What write queue length does an incoming req see (Count)
system.loc_mem_ctrl.wrQLenPdf::9                 7852                       # What write queue length does an incoming req see (Count)
system.loc_mem_ctrl.wrQLenPdf::10                8357                       # What write queue length does an incoming req see (Count)
system.loc_mem_ctrl.wrQLenPdf::11                8780                       # What write queue length does an incoming req see (Count)
system.loc_mem_ctrl.wrQLenPdf::12                9242                       # What write queue length does an incoming req see (Count)
system.loc_mem_ctrl.wrQLenPdf::13                9581                       # What write queue length does an incoming req see (Count)
system.loc_mem_ctrl.wrQLenPdf::14                9958                       # What write queue length does an incoming req see (Count)
system.loc_mem_ctrl.wrQLenPdf::15               10329                       # What write queue length does an incoming req see (Count)
system.loc_mem_ctrl.wrQLenPdf::16               10704                       # What write queue length does an incoming req see (Count)
system.loc_mem_ctrl.wrQLenPdf::17               11038                       # What write queue length does an incoming req see (Count)
system.loc_mem_ctrl.wrQLenPdf::18               11428                       # What write queue length does an incoming req see (Count)
system.loc_mem_ctrl.wrQLenPdf::19               11603                       # What write queue length does an incoming req see (Count)
system.loc_mem_ctrl.wrQLenPdf::20               12018                       # What write queue length does an incoming req see (Count)
system.loc_mem_ctrl.wrQLenPdf::21               12259                       # What write queue length does an incoming req see (Count)
system.loc_mem_ctrl.wrQLenPdf::22               12586                       # What write queue length does an incoming req see (Count)
system.loc_mem_ctrl.wrQLenPdf::23               12927                       # What write queue length does an incoming req see (Count)
system.loc_mem_ctrl.wrQLenPdf::24               13422                       # What write queue length does an incoming req see (Count)
system.loc_mem_ctrl.wrQLenPdf::25               13486                       # What write queue length does an incoming req see (Count)
system.loc_mem_ctrl.wrQLenPdf::26               13708                       # What write queue length does an incoming req see (Count)
system.loc_mem_ctrl.wrQLenPdf::27               13897                       # What write queue length does an incoming req see (Count)
system.loc_mem_ctrl.wrQLenPdf::28               14293                       # What write queue length does an incoming req see (Count)
system.loc_mem_ctrl.wrQLenPdf::29               14327                       # What write queue length does an incoming req see (Count)
system.loc_mem_ctrl.wrQLenPdf::30               14584                       # What write queue length does an incoming req see (Count)
system.loc_mem_ctrl.wrQLenPdf::31               14663                       # What write queue length does an incoming req see (Count)
system.loc_mem_ctrl.wrQLenPdf::32               15068                       # What write queue length does an incoming req see (Count)
system.loc_mem_ctrl.wrQLenPdf::33               15280                       # What write queue length does an incoming req see (Count)
system.loc_mem_ctrl.wrQLenPdf::34               15437                       # What write queue length does an incoming req see (Count)
system.loc_mem_ctrl.wrQLenPdf::35               15500                       # What write queue length does an incoming req see (Count)
system.loc_mem_ctrl.wrQLenPdf::36               15569                       # What write queue length does an incoming req see (Count)
system.loc_mem_ctrl.wrQLenPdf::37               15615                       # What write queue length does an incoming req see (Count)
system.loc_mem_ctrl.wrQLenPdf::38               15923                       # What write queue length does an incoming req see (Count)
system.loc_mem_ctrl.wrQLenPdf::39               15823                       # What write queue length does an incoming req see (Count)
system.loc_mem_ctrl.wrQLenPdf::40               16040                       # What write queue length does an incoming req see (Count)
system.loc_mem_ctrl.wrQLenPdf::41               16264                       # What write queue length does an incoming req see (Count)
system.loc_mem_ctrl.wrQLenPdf::42               16602                       # What write queue length does an incoming req see (Count)
system.loc_mem_ctrl.wrQLenPdf::43               16641                       # What write queue length does an incoming req see (Count)
system.loc_mem_ctrl.wrQLenPdf::44               16907                       # What write queue length does an incoming req see (Count)
system.loc_mem_ctrl.wrQLenPdf::45               17003                       # What write queue length does an incoming req see (Count)
system.loc_mem_ctrl.wrQLenPdf::46               17284                       # What write queue length does an incoming req see (Count)
system.loc_mem_ctrl.wrQLenPdf::47               17349                       # What write queue length does an incoming req see (Count)
system.loc_mem_ctrl.wrQLenPdf::48               17512                       # What write queue length does an incoming req see (Count)
system.loc_mem_ctrl.wrQLenPdf::49               17564                       # What write queue length does an incoming req see (Count)
system.loc_mem_ctrl.wrQLenPdf::50               17772                       # What write queue length does an incoming req see (Count)
system.loc_mem_ctrl.wrQLenPdf::51               17731                       # What write queue length does an incoming req see (Count)
system.loc_mem_ctrl.wrQLenPdf::52               17956                       # What write queue length does an incoming req see (Count)
system.loc_mem_ctrl.wrQLenPdf::53               17945                       # What write queue length does an incoming req see (Count)
system.loc_mem_ctrl.wrQLenPdf::54               18191                       # What write queue length does an incoming req see (Count)
system.loc_mem_ctrl.wrQLenPdf::55               18314                       # What write queue length does an incoming req see (Count)
[...]
system.loc_mem_ctrl.dram_2.perBankRdBursts::3       221546                       # Per bank write bursts (Count)
system.loc_mem_ctrl.dram_2.perBankRdBursts::4       222612                       # Per bank write bursts (Count)
system.loc_mem_ctrl.dram_2.perBankRdBursts::5       221772                       # Per bank write bursts (Count)
system.loc_mem_ctrl.dram_2.perBankRdBursts::6       221790                       # Per bank write bursts (Count)
system.loc_mem_ctrl.dram_2.perBankRdBursts::7       220996                       # Per bank write bursts (Count)
system.loc_mem_ctrl.dram_2.perBankRdBursts::8       221244                       # Per bank write bursts (Count)
system.loc_mem_ctrl.dram_2.perBankRdBursts::9       221456                       # Per bank write bursts (Count)
system.loc_mem_ctrl.dram_2.perBankRdBursts::10       222011                       # Per bank write bursts (Count)
system.loc_mem_ctrl.dram_2.perBankRdBursts::11       221788                       # Per bank write bursts (Count)
system.loc_mem_ctrl.dram_2.perBankRdBursts::12       222634                       # Per bank write bursts (Count)
system.loc_mem_ctrl.dram_2.perBankRdBursts::13       222334                       # Per bank write bursts (Count)
system.loc_mem_ctrl.dram_2.perBankRdBursts::14       222662                       # Per bank write bursts (Count)
system.loc_mem_ctrl.dram_2.perBankRdBursts::15       222988                       # Per bank write bursts (Count)
system.loc_mem_ctrl.dram_2.perBankWrBursts::0       221866                       # Per bank write bursts (Count)
system.loc_mem_ctrl.dram_2.perBankWrBursts::1       222118                       # Per bank write bursts (Count)
system.loc_mem_ctrl.dram_2.perBankWrBursts::2       222424                       # Per bank write bursts (Count)
system.loc_mem_ctrl.dram_2.perBankWrBursts::3       221538                       # Per bank write bursts (Count)
system.loc_mem_ctrl.dram_2.perBankWrBursts::4       222604                       # Per bank write bursts (Count)
system.loc_mem_ctrl.dram_2.perBankWrBursts::5       221770                       # Per bank write bursts (Count)
system.loc_mem_ctrl.dram_2.perBankWrBursts::6       221786                       # Per bank write bursts (Count)
system.loc_mem_ctrl.dram_2.perBankWrBursts::7       220992                       # Per bank write bursts (Count)
system.loc_mem_ctrl.dram_2.perBankWrBursts::8       221242                       # Per bank write bursts (Count)
system.loc_mem_ctrl.dram_2.perBankWrBursts::9       221448                       # Per bank write bursts (Count)
system.loc_mem_ctrl.dram_2.perBankWrBursts::10       222002                       # Per bank write bursts (Count)
system.loc_mem_ctrl.dram_2.perBankWrBursts::11       221784                       # Per bank write bursts (Count)
system.loc_mem_ctrl.dram_2.perBankWrBursts::12       222632                       # Per bank write bursts (Count)
system.loc_mem_ctrl.dram_2.perBankWrBursts::13       222326                       # Per bank write bursts (Count)
system.loc_mem_ctrl.dram_2.perBankWrBursts::14       222658                       # Per bank write bursts (Count)
system.loc_mem_ctrl.dram_2.perBankWrBursts::15       222984                       # Per bank write bursts (Count)
system.loc_mem_ctrl.dram_2.totQLat       758576707525                       # Total ticks spent queuing (Tick)
system.loc_mem_ctrl.dram_2.totBusLat       7104518000                       # Total ticks spent in databus transfers (Tick)
system.loc_mem_ctrl.dram_2.totMemAccLat  829621887525                       # Total ticks spent from burst creation until serviced by the DRAM (Tick)
system.loc_mem_ctrl.dram_2.avgQLat          213547.69                       # Average queueing delay per DRAM burst ((Tick/Count))
system.loc_mem_ctrl.dram_2.avgBusLat          2000.00                       # Average bus latency per DRAM burst ((Tick/Count))
system.loc_mem_ctrl.dram_2.avgMemAccLat     233547.69                       # Average memory access latency per DRAM burst ((Tick/Count))
system.loc_mem_ctrl.dram_2.readRowHits        1774097                       # Number of row buffer hits during reads (Count)
system.loc_mem_ctrl.dram_2.writeRowHits       1773902                       # Number of row buffer hits during writes (Count)
system.loc_mem_ctrl.dram_2.readRowHitRate        49.94                       # Row buffer hit rate for reads (Ratio)
system.loc_mem_ctrl.dram_2.writeRowHitRate        49.94                       # Row buffer hit rate for writes (Ratio)
system.loc_mem_ctrl.dram_2.bytesPerActivate::samples      3556433                       # Bytes accessed per row activation (Byte)
system.loc_mem_ctrl.dram_2.bytesPerActivate::mean    63.924113                       # Bytes accessed per row activation (Byte)
system.loc_mem_ctrl.dram_2.bytesPerActivate::gmean    63.894399                       # Bytes accessed per row activation (Byte)
system.loc_mem_ctrl.dram_2.bytesPerActivate::stdev     1.577977                       # Bytes accessed per row activation (Byte)
system.loc_mem_ctrl.dram_2.bytesPerActivate::32-47         8512      0.24%      0.24% # Bytes accessed per row activation (Byte)
system.loc_mem_ctrl.dram_2.bytesPerActivate::64-79      3547882     99.76%    100.00% # Bytes accessed per row activation (Byte)
system.loc_mem_ctrl.dram_2.bytesPerActivate::128-143           39      0.00%    100.00% # Bytes accessed per row activation (Byte)
system.loc_mem_ctrl.dram_2.bytesPerActivate::total      3556433                       # Bytes accessed per row activation (Byte)
system.loc_mem_ctrl.dram_2.bytesRead        113672288                       # Total bytes read (Byte)
system.loc_mem_ctrl.dram_2.bytesWritten     113669568                       # Total bytes written (Byte)
system.loc_mem_ctrl.dram_2.avgRdBW        5683.611274                       # Average DRAM read bandwidth in MiBytes/s ((Byte/Second))
system.loc_mem_ctrl.dram_2.avgWrBW        5683.475274                       # Average DRAM write bandwidth in MiBytes/s ((Byte/Second))
system.loc_mem_ctrl.dram_2.peakBW            16000.00                       # Theoretical peak bandwidth in MiByte/s ((Byte/Second))
system.loc_mem_ctrl.dram_2.busUtil              71.04                       # Data bus utilization in percentage (Ratio)
system.loc_mem_ctrl.dram_2.busUtilRead          35.52                       # Data bus utilization in percentage for reads (Ratio)
system.loc_mem_ctrl.dram_2.busUtilWrite         35.52                       # Data bus utilization in percentage for writes (Ratio)
system.loc_mem_ctrl.dram_2.pageHitRate          49.94                       # Row buffer hit rate, read and write combined (Ratio)
system.loc_mem_ctrl.dram_2.power_state.pwrStateResidencyTicks::UNDEFINED  20000011001                       # Cumulative time (in ticks) in various power states (Tick)
system.loc_mem_ctrl.dram_2.rank0.actEnergy            0                       # Energy for activate commands per rank (pJ) (Joule)
system.loc_mem_ctrl.dram_2.rank0.preEnergy            0                       # Energy for precharge commands per rank (pJ) (Joule)
system.loc_mem_ctrl.dram_2.rank0.readEnergy            0                       # Energy for read commands per rank (pJ) (Joule)
system.loc_mem_ctrl.dram_2.rank0.writeEnergy            0                       # Energy for write commands per rank (pJ) (Joule)
system.loc_mem_ctrl.dram_2.rank0.refreshEnergy            0                       # Energy for refresh commands per rank (pJ) (Joule)
system.loc_mem_ctrl.dram_2.rank0.actBackEnergy            0                       # Energy for active background per rank (pJ) (Joule)
system.loc_mem_ctrl.dram_2.rank0.preBackEnergy            0                       # Energy for precharge background per rank (pJ) (Joule)
system.loc_mem_ctrl.dram_2.rank0.actPowerDownEnergy            0                       # Energy for active power-down per rank (pJ) (Joule)
system.loc_mem_ctrl.dram_2.rank0.prePowerDownEnergy            0                       # Energy for precharge power-down per rank (pJ) (Joule)
system.loc_mem_ctrl.dram_2.rank0.selfRefreshEnergy            0                       # Energy for self refresh per rank (pJ) (Joule)
system.loc_mem_ctrl.dram_2.rank0.totalEnergy            0                       # Total energy per rank (pJ) (Joule)
system.loc_mem_ctrl.dram_2.rank0.averagePower            0                       # Core power per rank (mW) (Watt)
system.loc_mem_ctrl.dram_2.rank0.totalIdleTime            0                       # Total Idle time Per DRAM Rank (Tick)
system.loc_mem_ctrl.dram_2.rank0.pwrStateTime::IDLE     99807572                       # Time in different power states (Tick)
system.loc_mem_ctrl.dram_2.rank0.pwrStateTime::REF   1132120000                       # Time in different power states (Tick)
system.loc_mem_ctrl.dram_2.rank0.pwrStateTime::SREF            0                       # Time in different power states (Tick)
system.loc_mem_ctrl.dram_2.rank0.pwrStateTime::PRE_PDN            0                       # Time in different power states (Tick)
system.loc_mem_ctrl.dram_2.rank0.pwrStateTime::ACT  18768083429                       # Time in different power states (Tick)
system.loc_mem_ctrl.dram_2.rank0.pwrStateTime::ACT_PDN            0                       # Time in different power states (Tick)
system.loc_mem_ctrl.power_state.pwrStateResidencyTicks::UNDEFINED  20000011001                       # Cumulative time (in ticks) in various power states (Tick)
system.mem_ctrl.bytesRead::generator        150843712                       # Number of bytes read from this memory (Byte)
system.mem_ctrl.bytesRead::total            150843712                       # Number of bytes read from this memory (Byte)
system.mem_ctrl.bytesWritten::generator      76632000                       # Number of bytes written to this memory (Byte)
system.mem_ctrl.bytesWritten::total          76632000                       # Number of bytes written to this memory (Byte)
system.mem_ctrl.numReads::generator           2356933                       # Number of read requests responded to by this memory (Count)
system.mem_ctrl.numReads::total               2356933                       # Number of read requests responded to by this memory (Count)
system.mem_ctrl.numWrites::generator          1197375                       # Number of write requests responded to by this memory (Count)
system.mem_ctrl.numWrites::total              1197375                       # Number of write requests responded to by this memory (Count)
system.mem_ctrl.bwRead::generator          7542181451                       # Total read bandwidth from this memory ((Byte/Second))
system.mem_ctrl.bwRead::total              7542181451                       # Total read bandwidth from this memory ((Byte/Second))
system.mem_ctrl.bwWrite::generator         3831597892                       # Write bandwidth from this memory ((Byte/Second))
system.mem_ctrl.bwWrite::total             3831597892                       # Write bandwidth from this memory ((Byte/Second))
system.mem_ctrl.bwTotal::generator        11373779344                       # Total bandwidth to/from this memory ((Byte/Second))
system.mem_ctrl.bwTotal::total            11373779344                       # Total bandwidth to/from this memory ((Byte/Second))
system.mem_ctrl.readReqs                      2357102                       # Number of read requests accepted (Count)
system.mem_ctrl.writeReqs                     1197375                       # Number of write requests accepted (Count)
system.mem_ctrl.servicedByWrQ                       6                       # Number of controller read bursts serviced by the write queue (Count)
system.mem_ctrl.mergedWrBursts                      1                       # Number of controller write bursts merged with an existing one (Count)
system.mem_ctrl.numRdRetry                    2354489                       # Number of times read queue was full causing retry (Count)
system.mem_ctrl.numWrRetry                    1195969                       # Number of times write queue was full causing retry (Count)
system.mem_ctrl.readPktSize::0                      0                       # Read request sizes (log2) (Count)
system.mem_ctrl.readPktSize::1                      0                       # Read request sizes (log2) (Count)
system.mem_ctrl.readPktSize::2                      0                       # Read request sizes (log2) (Count)
system.mem_ctrl.readPktSize::3                      0                       # Read request sizes (log2) (Count)
system.mem_ctrl.readPktSize::4                      0                       # Read request sizes (log2) (Count)
system.mem_ctrl.readPktSize::5                      0                       # Read request sizes (log2) (Count)
system.mem_ctrl.readPktSize::6                2357102                       # Read request sizes (log2) (Count)
system.mem_ctrl.writePktSize::0                     0                       # Write request sizes (log2) (Count)
system.mem_ctrl.writePktSize::1                     0                       # Write request sizes (log2) (Count)
system.mem_ctrl.writePktSize::2                     0                       # Write request sizes (log2) (Count)
system.mem_ctrl.writePktSize::3                     0                       # Write request sizes (log2) (Count)
system.mem_ctrl.writePktSize::4                     0                       # Write request sizes (log2) (Count)
system.mem_ctrl.writePktSize::5                     0                       # Write request sizes (log2) (Count)
system.mem_ctrl.writePktSize::6               1197375                       # Write request sizes (log2) (Count)
system.mem_ctrl.bytesReadWrQ                      384                       # Total number of bytes read from write queue (Byte)
system.mem_ctrl.bytesReadSys                150854528                       # Total read bytes from the system interface side (Byte)
system.mem_ctrl.bytesWrittenSys              76632000                       # Total written bytes from the system interface side (Byte)
system.mem_ctrl.avgRdBWSys               7542722251.12562561                       # Average system read bandwidth in Byte/s ((Byte/Second))
system.mem_ctrl.avgWrBWSys               3831597892.42957926                       # Average system write bandwidth in Byte/s ((Byte/Second))
system.mem_ctrl.totGap                   18446604296851421184                       # Total gap between requests (Tick)
system.mem_ctrl.avgGap                   5189681716002.50                       # Average gap between requests ((Tick/Count))
system.mem_ctrl.avgORBLen                    255.9981                       # Average ORB length ((Count/Tick))
system.mem_ctrl.avgLocRdQLenStrt               142.30                       # Average local read queue length ((Count/Tick))
system.mem_ctrl.avgLocWrQLenStrt                50.82                       # Average local write queue length ((Count/Tick))
system.mem_ctrl.avgFarRdQLenStrt                 0.32                       # Average far read queue length ((Count/Tick))
system.mem_ctrl.avgFarWrQLenStrt                 0.00                       # Average far write queue length ((Count/Tick))
system.mem_ctrl.avgLocRdQLenEnq                143.30                       # Average local read queue length when enqueuing ((Count/Tick))
system.mem_ctrl.avgLocWrQLenEnq                111.81                       # Average local write queue length when enqueuing ((Count/Tick))
system.mem_ctrl.avgFarRdQLenEnq                  1.89                       # Average far read queue length when enqueuing ((Count/Tick))
system.mem_ctrl.avgFarWrQLenEnq                  0.00                       # Average far write queue length when enqueuing ((Count/Tick))
system.mem_ctrl.numWrBacks                          0                       # Total number of write backs from DRAM cache to main memory (Unspecified)
system.mem_ctrl.totNumConf                        841                       # Total number of packets conflicted on DRAM cache (Unspecified)
system.mem_ctrl.totNumORBFull                 3550458                       # Total number of packets ORB full (Unspecified)
system.mem_ctrl.totNumCRBFull                       0                       # Total number of packets conflicted yet couldn't enter confBuffer (Unspecified)
system.mem_ctrl.maxNumConf                          2                       # Maximum number of packets conflicted on DRAM cache (Unspecified)
system.mem_ctrl.sentLocRdPort                 3554299                       # stat (Unspecified)
system.mem_ctrl.sentLocWrPort                 3554223                       # stat (Unspecified)
system.mem_ctrl.failedLocRdPort               8922469                       # stat (Unspecified)
system.mem_ctrl.failedLocWrPort               9541550                       # stat (Unspecified)
system.mem_ctrl.recvdRdPort                         0                       # stat (Unspecified)
system.mem_ctrl.sentFarRdPort                 2356949                       # stat (Unspecified)
system.mem_ctrl.sentFarWrPort                       0                       # stat (Unspecified)
system.mem_ctrl.failedFarRdPort                137444                       # stat (Unspecified)
system.mem_ctrl.failedFarWrPort                     0                       # stat (Unspecified)
system.mem_ctrl.totPktsServiceTime         5119877276                       # stat (Unspecified)
system.mem_ctrl.totPktsORBTime             5119257765                       # stat (Unspecified)
system.mem_ctrl.totTimeFarRdtoSend           11128413                       # stat (Unspecified)
system.mem_ctrl.totTimeFarRdtoRecv          280857632                       # stat (Unspecified)
system.mem_ctrl.totTimeFarWrtoSend                  0                       # stat (Unspecified)
system.mem_ctrl.totTimeInLocRead           3162251413                       # stat (Unspecified)
system.mem_ctrl.totTimeInLocWrite          1662803769                       # stat (Unspecified)
system.mem_ctrl.totTimeInFarRead            292029989                       # stat (Unspecified)
system.mem_ctrl.numTotHits                          0                       # stat (Unspecified)
system.mem_ctrl.numTotMisses                  3554477                       # stat (Unspecified)
system.mem_ctrl.numColdMisses                 1013476                       # stat (Unspecified)
system.mem_ctrl.numHotMisses                  2541001                       # stat (Unspecified)
system.mem_ctrl.numRdMissClean                1789310                       # stat (Unspecified)
system.mem_ctrl.numRdMissDirty                 567792                       # stat (Unspecified)
system.mem_ctrl.numRdHit                            0                       # stat (Unspecified)
system.mem_ctrl.numWrMissClean                 908728                       # stat (Unspecified)
system.mem_ctrl.numWrMissDirty                 288647                       # stat (Unspecified)
system.mem_ctrl.numWrHit                            0                       # stat (Unspecified)
system.mem_ctrl.numRdHitDirty                       0                       # stat (Unspecified)
system.mem_ctrl.numRdHitClean                       0                       # stat (Unspecified)
system.mem_ctrl.numWrHitDirty                       0                       # stat (Unspecified)
system.mem_ctrl.numWrHitClean                       0                       # stat (Unspecified)
system.mem_ctrl.power_state.pwrStateResidencyTicks::UNDEFINED  20000011001                       # Cumulative time (in ticks) in various power states (Tick)
system.workload.inst.arm                            0                       # number of arm instructions executed (Count)
system.workload.inst.quiesce                        0                       # number of quiesce instructions executed (Count)

---------- End Simulation Statistics   ----------
