
---------- Begin Simulation Statistics ----------
simSeconds                                   0.121967                       # Number of seconds simulated (Second)
simTicks                                 121966647501                       # Number of ticks simulated (Tick)
finalTick                                150532299822001                       # Number of ticks from beginning of simulation (restored from checkpoints and never reset) (Tick)
simFreq                                  1000000000000                       # The number of ticks per simulated second ((Tick/Second))
hostSeconds                                    499.86                       # Real time elapsed on the host (Second)
hostTickRate                                244002921                       # The number of ticks simulated per host second (ticks/s) ((Tick/Second))
hostMemory                                    7353464                       # Number of bytes of host memory used (Byte)
simInsts                                  38409409881                       # Number of instructions simulated (Count)
simOps                                    38481730022                       # Number of ops (including micro ops) simulated (Count)
hostInstRate                                 76840726                       # Simulator instruction rate (inst/s) ((Count/Second))
hostOpRate                                   76985406                       # Simulator op (including micro ops) rate (op/s) ((Count/Second))
system.work_item_type0::samples                     1                       # Run time stat forwork_item_type0 (Unspecified)
system.work_item_type0::mean             121966647501                       # Run time stat forwork_item_type0 (Unspecified)
system.work_item_type0::gmean            121966647501.000015                       # Run time stat forwork_item_type0 (Unspecified)
system.work_item_type0::stdev                     nan                       # Run time stat forwork_item_type0 (Unspecified)
system.work_item_type0::0-8.58993e+09               0      0.00%      0.00% # Run time stat forwork_item_type0 (Unspecified)
system.work_item_type0::8.58993e+09-1.71799e+10            0      0.00%      0.00% # Run time stat forwork_item_type0 (Unspecified)
system.work_item_type0::1.71799e+10-2.57698e+10            0      0.00%      0.00% # Run time stat forwork_item_type0 (Unspecified)
system.work_item_type0::2.57698e+10-3.43597e+10            0      0.00%      0.00% # Run time stat forwork_item_type0 (Unspecified)
system.work_item_type0::3.43597e+10-4.29497e+10            0      0.00%      0.00% # Run time stat forwork_item_type0 (Unspecified)
system.work_item_type0::4.29497e+10-5.15396e+10            0      0.00%      0.00% # Run time stat forwork_item_type0 (Unspecified)
system.work_item_type0::5.15396e+10-6.01295e+10            0      0.00%      0.00% # Run time stat forwork_item_type0 (Unspecified)
system.work_item_type0::6.01295e+10-6.87195e+10            0      0.00%      0.00% # Run time stat forwork_item_type0 (Unspecified)
system.work_item_type0::6.87195e+10-7.73094e+10            0      0.00%      0.00% # Run time stat forwork_item_type0 (Unspecified)
system.work_item_type0::7.73094e+10-8.58993e+10            0      0.00%      0.00% # Run time stat forwork_item_type0 (Unspecified)
system.work_item_type0::8.58993e+10-9.44893e+10            0      0.00%      0.00% # Run time stat forwork_item_type0 (Unspecified)
system.work_item_type0::9.44893e+10-1.03079e+11            0      0.00%      0.00% # Run time stat forwork_item_type0 (Unspecified)
system.work_item_type0::1.03079e+11-1.11669e+11            0      0.00%      0.00% # Run time stat forwork_item_type0 (Unspecified)
system.work_item_type0::1.11669e+11-1.20259e+11            0      0.00%      0.00% # Run time stat forwork_item_type0 (Unspecified)
system.work_item_type0::1.20259e+11-1.28849e+11            1    100.00%    100.00% # Run time stat forwork_item_type0 (Unspecified)
system.work_item_type0::1.28849e+11-1.37439e+11            0      0.00%    100.00% # Run time stat forwork_item_type0 (Unspecified)
system.work_item_type0::1.37439e+11-1.46029e+11            0      0.00%    100.00% # Run time stat forwork_item_type0 (Unspecified)
system.work_item_type0::1.46029e+11-1.54619e+11            0      0.00%    100.00% # Run time stat forwork_item_type0 (Unspecified)
system.work_item_type0::1.54619e+11-1.63209e+11            0      0.00%    100.00% # Run time stat forwork_item_type0 (Unspecified)
system.work_item_type0::1.63209e+11-1.71799e+11            0      0.00%    100.00% # Run time stat forwork_item_type0 (Unspecified)
system.work_item_type0::total                       1                       # Run time stat forwork_item_type0 (Unspecified)
system.atomicCpu0.numCycles                         0                       # Number of cpu cycles simulated (Cycle)
system.atomicCpu0.numWorkItemsStarted               0                       # Number of work items this cpu started (Count)
system.atomicCpu0.numWorkItemsCompleted             0                       # Number of work items this cpu completed (Count)
system.atomicCpu0.exec_context.thread_0.numInsts            0                       # Number of instructions committed (Count)
system.atomicCpu0.exec_context.thread_0.numOps            0                       # Number of ops (including micro ops) committed (Count)
system.atomicCpu0.exec_context.thread_0.numIntAluAccesses            0                       # Number of integer alu accesses (Count)
system.atomicCpu0.exec_context.thread_0.numFpAluAccesses            0                       # Number of float alu accesses (Count)
system.atomicCpu0.exec_context.thread_0.numVecAluAccesses            0                       # Number of vector alu accesses (Count)
system.atomicCpu0.exec_context.thread_0.numCallsReturns            0                       # Number of times a function call or return occured (Count)
system.atomicCpu0.exec_context.thread_0.numCondCtrlInsts            0                       # Number of instructions that are conditional controls (Count)
system.atomicCpu0.exec_context.thread_0.numIntInsts            0                       # Number of integer instructions (Count)
system.atomicCpu0.exec_context.thread_0.numFpInsts            0                       # Number of float instructions (Count)
system.atomicCpu0.exec_context.thread_0.numVecInsts            0                       # Number of vector instructions (Count)
system.atomicCpu0.exec_context.thread_0.numIntRegReads            0                       # Number of times the integer registers were read (Count)
system.atomicCpu0.exec_context.thread_0.numIntRegWrites            0                       # Number of times the integer registers were written (Count)
system.atomicCpu0.exec_context.thread_0.numFpRegReads            0                       # Number of times the floating registers were read (Count)
system.atomicCpu0.exec_context.thread_0.numFpRegWrites            0                       # Number of times the floating registers were written (Count)
system.atomicCpu0.exec_context.thread_0.numVecRegReads            0                       # Number of times the vector registers were read (Count)
system.atomicCpu0.exec_context.thread_0.numVecRegWrites            0                       # Number of times the vector registers were written (Count)
system.atomicCpu0.exec_context.thread_0.numVecPredRegReads            0                       # Number of times the predicate registers were read (Count)
system.atomicCpu0.exec_context.thread_0.numVecPredRegWrites            0                       # Number of times the predicate registers were written (Count)
system.atomicCpu0.exec_context.thread_0.numMiscRegReads            0                       # Number of times the Misc registers were read (Count)
system.atomicCpu0.exec_context.thread_0.numMiscRegWrites            0                       # Number of times the Misc registers were written (Count)
system.atomicCpu0.exec_context.thread_0.numMemRefs            0                       # Number of memory refs (Count)
system.atomicCpu0.exec_context.thread_0.numLoadInsts            0                       # Number of load instructions (Count)
system.atomicCpu0.exec_context.thread_0.numStoreInsts            0                       # Number of store instructions (Count)
system.atomicCpu0.exec_context.thread_0.numIdleCycles            0                       # Number of idle cycles (Cycle)
system.atomicCpu0.exec_context.thread_0.numBusyCycles            0                       # Number of busy cycles (Cycle)
system.atomicCpu0.exec_context.thread_0.notIdleFraction            0                       # Percentage of non-idle cycles (Ratio)
system.atomicCpu0.exec_context.thread_0.idleFraction            1                       # Percentage of idle cycles (Ratio)
system.atomicCpu0.exec_context.thread_0.statExecutedInstType::No_OpClass            0                       # Class of executed instruction. (Count)
system.atomicCpu0.exec_context.thread_0.statExecutedInstType::IntAlu            0                       # Class of executed instruction. (Count)
system.atomicCpu0.exec_context.thread_0.statExecutedInstType::IntMult            0                       # Class of executed instruction. (Count)
system.atomicCpu0.exec_context.thread_0.statExecutedInstType::IntDiv            0                       # Class of executed instruction. (Count)
system.atomicCpu0.exec_context.thread_0.statExecutedInstType::FloatAdd            0                       # Class of executed instruction. (Count)
system.atomicCpu0.exec_context.thread_0.statExecutedInstType::FloatCmp            0                       # Class of executed instruction. (Count)
system.atomicCpu0.exec_context.thread_0.statExecutedInstType::FloatCvt            0                       # Class of executed instruction. (Count)
system.atomicCpu0.exec_context.thread_0.statExecutedInstType::FloatMult            0                       # Class of executed instruction. (Count)
system.atomicCpu0.exec_context.thread_0.statExecutedInstType::FloatMultAcc            0                       # Class of executed instruction. (Count)
system.atomicCpu0.exec_context.thread_0.statExecutedInstType::FloatDiv            0                       # Class of executed instruction. (Count)
system.atomicCpu0.exec_context.thread_0.statExecutedInstType::FloatMisc            0                       # Class of executed instruction. (Count)
system.atomicCpu0.exec_context.thread_0.statExecutedInstType::FloatSqrt            0                       # Class of executed instruction. (Count)
system.atomicCpu0.exec_context.thread_0.statExecutedInstType::SimdAdd            0                       # Class of executed instruction. (Count)
system.atomicCpu0.exec_context.thread_0.statExecutedInstType::SimdAddAcc            0                       # Class of executed instruction. (Count)
system.atomicCpu0.exec_context.thread_0.statExecutedInstType::SimdAlu            0                       # Class of executed instruction. (Count)
system.atomicCpu0.exec_context.thread_0.statExecutedInstType::SimdCmp            0                       # Class of executed instruction. (Count)
system.atomicCpu0.exec_context.thread_0.statExecutedInstType::SimdCvt            0                       # Class of executed instruction. (Count)
system.atomicCpu0.exec_context.thread_0.statExecutedInstType::SimdMisc            0                       # Class of executed instruction. (Count)
system.atomicCpu0.exec_context.thread_0.statExecutedInstType::SimdMult            0                       # Class of executed instruction. (Count)
system.atomicCpu0.exec_context.thread_0.statExecutedInstType::SimdMultAcc            0                       # Class of executed instruction. (Count)
system.atomicCpu0.exec_context.thread_0.statExecutedInstType::SimdShift            0                       # Class of executed instruction. (Count)
system.atomicCpu0.exec_context.thread_0.statExecutedInstType::SimdShiftAcc            0                       # Class of executed instruction. (Count)
system.atomicCpu0.exec_context.thread_0.statExecutedInstType::SimdDiv            0                       # Class of executed instruction. (Count)
system.atomicCpu0.exec_context.thread_0.statExecutedInstType::SimdSqrt            0                       # Class of executed instruction. (Count)
system.atomicCpu0.exec_context.thread_0.statExecutedInstType::SimdFloatAdd            0                       # Class of executed instruction. (Count)
system.atomicCpu0.exec_context.thread_0.statExecutedInstType::SimdFloatAlu            0                       # Class of executed instruction. (Count)
system.atomicCpu0.exec_context.thread_0.statExecutedInstType::SimdFloatCmp            0                       # Class of executed instruction. (Count)
system.atomicCpu0.exec_context.thread_0.statExecutedInstType::SimdFloatCvt            0                       # Class of executed instruction. (Count)
system.atomicCpu0.exec_context.thread_0.statExecutedInstType::SimdFloatDiv            0                       # Class of executed instruction. (Count)
system.atomicCpu0.exec_context.thread_0.statExecutedInstType::SimdFloatMisc            0                       # Class of executed instruction. (Count)
system.atomicCpu0.exec_context.thread_0.statExecutedInstType::SimdFloatMult            0                       # Class of executed instruction. (Count)
system.atomicCpu0.exec_context.thread_0.statExecutedInstType::SimdFloatMultAcc            0                       # Class of executed instruction. (Count)
system.atomicCpu0.exec_context.thread_0.statExecutedInstType::SimdFloatSqrt            0                       # Class of executed instruction. (Count)
system.atomicCpu0.exec_context.thread_0.statExecutedInstType::SimdReduceAdd            0                       # Class of executed instruction. (Count)
system.atomicCpu0.exec_context.thread_0.statExecutedInstType::SimdReduceAlu            0                       # Class of executed instruction. (Count)
system.atomicCpu0.exec_context.thread_0.statExecutedInstType::SimdReduceCmp            0                       # Class of executed instruction. (Count)
system.atomicCpu0.exec_context.thread_0.statExecutedInstType::SimdFloatReduceAdd            0                       # Class of executed instruction. (Count)
system.atomicCpu0.exec_context.thread_0.statExecutedInstType::SimdFloatReduceCmp            0                       # Class of executed instruction. (Count)
system.atomicCpu0.exec_context.thread_0.statExecutedInstType::SimdAes            0                       # Class of executed instruction. (Count)
system.atomicCpu0.exec_context.thread_0.statExecutedInstType::SimdAesMix            0                       # Class of executed instruction. (Count)
system.atomicCpu0.exec_context.thread_0.statExecutedInstType::SimdSha1Hash            0                       # Class of executed instruction. (Count)
system.atomicCpu0.exec_context.thread_0.statExecutedInstType::SimdSha1Hash2            0                       # Class of executed instruction. (Count)
system.atomicCpu0.exec_context.thread_0.statExecutedInstType::SimdSha256Hash            0                       # Class of executed instruction. (Count)
system.atomicCpu0.exec_context.thread_0.statExecutedInstType::SimdSha256Hash2            0                       # Class of executed instruction. (Count)
system.atomicCpu0.exec_context.thread_0.statExecutedInstType::SimdShaSigma2            0                       # Class of executed instruction. (Count)
system.atomicCpu0.exec_context.thread_0.statExecutedInstType::SimdShaSigma3            0                       # Class of executed instruction. (Count)
system.atomicCpu0.exec_context.thread_0.statExecutedInstType::SimdPredAlu            0                       # Class of executed instruction. (Count)
system.atomicCpu0.exec_context.thread_0.statExecutedInstType::MemRead            0                       # Class of executed instruction. (Count)
system.atomicCpu0.exec_context.thread_0.statExecutedInstType::MemWrite            0                       # Class of executed instruction. (Count)
system.atomicCpu0.exec_context.thread_0.statExecutedInstType::FloatMemRead            0                       # Class of executed instruction. (Count)
system.atomicCpu0.exec_context.thread_0.statExecutedInstType::FloatMemWrite            0                       # Class of executed instruction. (Count)
system.atomicCpu0.exec_context.thread_0.statExecutedInstType::IprAccess            0                       # Class of executed instruction. (Count)
system.atomicCpu0.exec_context.thread_0.statExecutedInstType::InstPrefetch            0                       # Class of executed instruction. (Count)
system.atomicCpu0.exec_context.thread_0.statExecutedInstType::total            0                       # Class of executed instruction. (Count)
system.atomicCpu0.mmu.dtb.rdAccesses                0                       # TLB accesses on read requests (Count)
system.atomicCpu0.mmu.dtb.wrAccesses                0                       # TLB accesses on write requests (Count)
system.atomicCpu0.mmu.dtb.rdMisses                  0                       # TLB misses on read requests (Count)
system.atomicCpu0.mmu.dtb.wrMisses                  0                       # TLB misses on write requests (Count)
system.atomicCpu0.mmu.dtb.walker.power_state.pwrStateResidencyTicks::UNDEFINED 150532299822001                       # Cumulative time (in ticks) in various power states (Tick)
system.atomicCpu0.mmu.itb.rdAccesses                0                       # TLB accesses on read requests (Count)
system.atomicCpu0.mmu.itb.wrAccesses                0                       # TLB accesses on write requests (Count)
system.atomicCpu0.mmu.itb.rdMisses                  0                       # TLB misses on read requests (Count)
system.atomicCpu0.mmu.itb.wrMisses                  0                       # TLB misses on write requests (Count)
system.atomicCpu0.mmu.itb.walker.power_state.pwrStateResidencyTicks::UNDEFINED 150532299822001                       # Cumulative time (in ticks) in various power states (Tick)
system.atomicCpu0.power_state.pwrStateResidencyTicks::OFF 150532299822001                       # Cumulative time (in ticks) in various power states (Tick)
system.atomicCpu0.thread_0.numInsts                 0                       # Number of Instructions committed (Count)
system.atomicCpu0.thread_0.numOps                   0                       # Number of Ops committed (Count)
system.atomicCpu0.thread_0.numMemRefs               0                       # Number of Memory References (Count)
system.atomicCpu1.numCycles                         0                       # Number of cpu cycles simulated (Cycle)
system.atomicCpu1.numWorkItemsStarted               0                       # Number of work items this cpu started (Count)
system.atomicCpu1.numWorkItemsCompleted             0                       # Number of work items this cpu completed (Count)
system.atomicCpu1.exec_context.thread_0.numInsts            0                       # Number of instructions committed (Count)
system.atomicCpu1.exec_context.thread_0.numOps            0                       # Number of ops (including micro ops) committed (Count)
system.atomicCpu1.exec_context.thread_0.numIntAluAccesses            0                       # Number of integer alu accesses (Count)
system.atomicCpu1.exec_context.thread_0.numFpAluAccesses            0                       # Number of float alu accesses (Count)
system.atomicCpu1.exec_context.thread_0.numVecAluAccesses            0                       # Number of vector alu accesses (Count)
system.atomicCpu1.exec_context.thread_0.numCallsReturns            0                       # Number of times a function call or return occured (Count)
system.atomicCpu1.exec_context.thread_0.numCondCtrlInsts            0                       # Number of instructions that are conditional controls (Count)
system.atomicCpu1.exec_context.thread_0.numIntInsts            0                       # Number of integer instructions (Count)
system.atomicCpu1.exec_context.thread_0.numFpInsts            0                       # Number of float instructions (Count)
system.atomicCpu1.exec_context.thread_0.numVecInsts            0                       # Number of vector instructions (Count)
system.atomicCpu1.exec_context.thread_0.numIntRegReads            0                       # Number of times the integer registers were read (Count)
system.atomicCpu1.exec_context.thread_0.numIntRegWrites            0                       # Number of times the integer registers were written (Count)
system.atomicCpu1.exec_context.thread_0.numFpRegReads            0                       # Number of times the floating registers were read (Count)
system.atomicCpu1.exec_context.thread_0.numFpRegWrites            0                       # Number of times the floating registers were written (Count)
system.atomicCpu1.exec_context.thread_0.numVecRegReads            0                       # Number of times the vector registers were read (Count)
system.atomicCpu1.exec_context.thread_0.numVecRegWrites            0                       # Number of times the vector registers were written (Count)
system.atomicCpu1.exec_context.thread_0.numVecPredRegReads            0                       # Number of times the predicate registers were read (Count)
system.atomicCpu1.exec_context.thread_0.numVecPredRegWrites            0                       # Number of times the predicate registers were written (Count)
system.atomicCpu1.exec_context.thread_0.numMiscRegReads            0                       # Number of times the Misc registers were read (Count)
system.atomicCpu1.exec_context.thread_0.numMiscRegWrites            0                       # Number of times the Misc registers were written (Count)
system.atomicCpu1.exec_context.thread_0.numMemRefs            0                       # Number of memory refs (Count)
system.atomicCpu1.exec_context.thread_0.numLoadInsts            0                       # Number of load instructions (Count)
system.atomicCpu1.exec_context.thread_0.numStoreInsts            0                       # Number of store instructions (Count)
system.atomicCpu1.exec_context.thread_0.numIdleCycles            0                       # Number of idle cycles (Cycle)
system.atomicCpu1.exec_context.thread_0.numBusyCycles            0                       # Number of busy cycles (Cycle)
system.atomicCpu1.exec_context.thread_0.notIdleFraction            0                       # Percentage of non-idle cycles (Ratio)
system.atomicCpu1.exec_context.thread_0.idleFraction            1                       # Percentage of idle cycles (Ratio)
system.atomicCpu1.exec_context.thread_0.statExecutedInstType::No_OpClass            0                       # Class of executed instruction. (Count)
system.atomicCpu1.exec_context.thread_0.statExecutedInstType::IntAlu            0                       # Class of executed instruction. (Count)
system.atomicCpu1.exec_context.thread_0.statExecutedInstType::IntMult            0                       # Class of executed instruction. (Count)
system.atomicCpu1.exec_context.thread_0.statExecutedInstType::IntDiv            0                       # Class of executed instruction. (Count)
system.atomicCpu1.exec_context.thread_0.statExecutedInstType::FloatAdd            0                       # Class of executed instruction. (Count)
system.atomicCpu1.exec_context.thread_0.statExecutedInstType::FloatCmp            0                       # Class of executed instruction. (Count)
system.atomicCpu1.exec_context.thread_0.statExecutedInstType::FloatCvt            0                       # Class of executed instruction. (Count)
system.atomicCpu1.exec_context.thread_0.statExecutedInstType::FloatMult            0                       # Class of executed instruction. (Count)
system.atomicCpu1.exec_context.thread_0.statExecutedInstType::FloatMultAcc            0                       # Class of executed instruction. (Count)
system.atomicCpu1.exec_context.thread_0.statExecutedInstType::FloatDiv            0                       # Class of executed instruction. (Count)
system.atomicCpu1.exec_context.thread_0.statExecutedInstType::FloatMisc            0                       # Class of executed instruction. (Count)
system.atomicCpu1.exec_context.thread_0.statExecutedInstType::FloatSqrt            0                       # Class of executed instruction. (Count)
system.atomicCpu1.exec_context.thread_0.statExecutedInstType::SimdAdd            0                       # Class of executed instruction. (Count)
system.atomicCpu1.exec_context.thread_0.statExecutedInstType::SimdAddAcc            0                       # Class of executed instruction. (Count)
system.atomicCpu1.exec_context.thread_0.statExecutedInstType::SimdAlu            0                       # Class of executed instruction. (Count)
system.atomicCpu1.exec_context.thread_0.statExecutedInstType::SimdCmp            0                       # Class of executed instruction. (Count)
system.atomicCpu1.exec_context.thread_0.statExecutedInstType::SimdCvt            0                       # Class of executed instruction. (Count)
system.atomicCpu1.exec_context.thread_0.statExecutedInstType::SimdMisc            0                       # Class of executed instruction. (Count)
system.atomicCpu1.exec_context.thread_0.statExecutedInstType::SimdMult            0                       # Class of executed instruction. (Count)
system.atomicCpu1.exec_context.thread_0.statExecutedInstType::SimdMultAcc            0                       # Class of executed instruction. (Count)
system.atomicCpu1.exec_context.thread_0.statExecutedInstType::SimdShift            0                       # Class of executed instruction. (Count)
system.atomicCpu1.exec_context.thread_0.statExecutedInstType::SimdShiftAcc            0                       # Class of executed instruction. (Count)
system.atomicCpu1.exec_context.thread_0.statExecutedInstType::SimdDiv            0                       # Class of executed instruction. (Count)
system.atomicCpu1.exec_context.thread_0.statExecutedInstType::SimdSqrt            0                       # Class of executed instruction. (Count)
system.atomicCpu1.exec_context.thread_0.statExecutedInstType::SimdFloatAdd            0                       # Class of executed instruction. (Count)
system.atomicCpu1.exec_context.thread_0.statExecutedInstType::SimdFloatAlu            0                       # Class of executed instruction. (Count)
system.atomicCpu1.exec_context.thread_0.statExecutedInstType::SimdFloatCmp            0                       # Class of executed instruction. (Count)
system.atomicCpu1.exec_context.thread_0.statExecutedInstType::SimdFloatCvt            0                       # Class of executed instruction. (Count)
system.atomicCpu1.exec_context.thread_0.statExecutedInstType::SimdFloatDiv            0                       # Class of executed instruction. (Count)
system.atomicCpu1.exec_context.thread_0.statExecutedInstType::SimdFloatMisc            0                       # Class of executed instruction. (Count)
system.atomicCpu1.exec_context.thread_0.statExecutedInstType::SimdFloatMult            0                       # Class of executed instruction. (Count)
system.atomicCpu1.exec_context.thread_0.statExecutedInstType::SimdFloatMultAcc            0                       # Class of executed instruction. (Count)
system.atomicCpu1.exec_context.thread_0.statExecutedInstType::SimdFloatSqrt            0                       # Class of executed instruction. (Count)
system.atomicCpu1.exec_context.thread_0.statExecutedInstType::SimdReduceAdd            0                       # Class of executed instruction. (Count)
system.atomicCpu1.exec_context.thread_0.statExecutedInstType::SimdReduceAlu            0                       # Class of executed instruction. (Count)
system.atomicCpu1.exec_context.thread_0.statExecutedInstType::SimdReduceCmp            0                       # Class of executed instruction. (Count)
system.atomicCpu1.exec_context.thread_0.statExecutedInstType::SimdFloatReduceAdd            0                       # Class of executed instruction. (Count)
system.atomicCpu1.exec_context.thread_0.statExecutedInstType::SimdFloatReduceCmp            0                       # Class of executed instruction. (Count)
system.atomicCpu1.exec_context.thread_0.statExecutedInstType::SimdAes            0                       # Class of executed instruction. (Count)
system.atomicCpu1.exec_context.thread_0.statExecutedInstType::SimdAesMix            0                       # Class of executed instruction. (Count)
system.atomicCpu1.exec_context.thread_0.statExecutedInstType::SimdSha1Hash            0                       # Class of executed instruction. (Count)
system.atomicCpu1.exec_context.thread_0.statExecutedInstType::SimdSha1Hash2            0                       # Class of executed instruction. (Count)
system.atomicCpu1.exec_context.thread_0.statExecutedInstType::SimdSha256Hash            0                       # Class of executed instruction. (Count)
system.atomicCpu1.exec_context.thread_0.statExecutedInstType::SimdSha256Hash2            0                       # Class of executed instruction. (Count)
system.atomicCpu1.exec_context.thread_0.statExecutedInstType::SimdShaSigma2            0                       # Class of executed instruction. (Count)
system.atomicCpu1.exec_context.thread_0.statExecutedInstType::SimdShaSigma3            0                       # Class of executed instruction. (Count)
system.atomicCpu1.exec_context.thread_0.statExecutedInstType::SimdPredAlu            0                       # Class of executed instruction. (Count)
system.atomicCpu1.exec_context.thread_0.statExecutedInstType::MemRead            0                       # Class of executed instruction. (Count)
system.atomicCpu1.exec_context.thread_0.statExecutedInstType::MemWrite            0                       # Class of executed instruction. (Count)
system.atomicCpu1.exec_context.thread_0.statExecutedInstType::FloatMemRead            0                       # Class of executed instruction. (Count)
system.atomicCpu1.exec_context.thread_0.statExecutedInstType::FloatMemWrite            0                       # Class of executed instruction. (Count)
system.atomicCpu1.exec_context.thread_0.statExecutedInstType::IprAccess            0                       # Class of executed instruction. (Count)
system.atomicCpu1.exec_context.thread_0.statExecutedInstType::InstPrefetch            0                       # Class of executed instruction. (Count)
system.atomicCpu1.exec_context.thread_0.statExecutedInstType::total            0                       # Class of executed instruction. (Count)
system.atomicCpu1.mmu.dtb.rdAccesses                0                       # TLB accesses on read requests (Count)
system.atomicCpu1.mmu.dtb.wrAccesses                0                       # TLB accesses on write requests (Count)
system.atomicCpu1.mmu.dtb.rdMisses                  0                       # TLB misses on read requests (Count)
system.atomicCpu1.mmu.dtb.wrMisses                  0                       # TLB misses on write requests (Count)
system.atomicCpu1.mmu.dtb.walker.power_state.pwrStateResidencyTicks::UNDEFINED 150532299822001                       # Cumulative time (in ticks) in various power states (Tick)
system.atomicCpu1.mmu.itb.rdAccesses                0                       # TLB accesses on read requests (Count)
system.atomicCpu1.mmu.itb.wrAccesses                0                       # TLB accesses on write requests (Count)
system.atomicCpu1.mmu.itb.rdMisses                  0                       # TLB misses on read requests (Count)
system.atomicCpu1.mmu.itb.wrMisses                  0                       # TLB misses on write requests (Count)
system.atomicCpu1.mmu.itb.walker.power_state.pwrStateResidencyTicks::UNDEFINED 150532299822001                       # Cumulative time (in ticks) in various power states (Tick)
system.atomicCpu1.power_state.pwrStateResidencyTicks::OFF 150532299822001                       # Cumulative time (in ticks) in various power states (Tick)
system.atomicCpu1.thread_0.numInsts                 0                       # Number of Instructions committed (Count)
system.atomicCpu1.thread_0.numOps                   0                       # Number of Ops committed (Count)
system.atomicCpu1.thread_0.numMemRefs               0                       # Number of Memory References (Count)
system.caches.delayHistogram::bucket_size           32                       # delay histogram for all message (Unspecified)
system.caches.delayHistogram::max_bucket          319                       # delay histogram for all message (Unspecified)
system.caches.delayHistogram::samples        12708893                       # delay histogram for all message (Unspecified)
system.caches.delayHistogram::mean           0.173953                       # delay histogram for all message (Unspecified)
system.caches.delayHistogram::stdev          1.171158                       # delay histogram for all message (Unspecified)
system.caches.delayHistogram             |    12708890    100.00%    100.00% |           1      0.00%    100.00% |           1      0.00%    100.00% |           0      0.00%    100.00% |           0      0.00%    100.00% |           0      0.00%    100.00% |           0      0.00%    100.00% |           0      0.00%    100.00% |           0      0.00%    100.00% |           1      0.00%    100.00% # delay histogram for all message (Unspecified)
system.caches.delayHistogram::total          12708893                       # delay histogram for all message (Unspecified)
system.caches.m_outstandReqHistSeqr::bucket_size            1                       (Unspecified)
system.caches.m_outstandReqHistSeqr::max_bucket            9                       (Unspecified)
system.caches.m_outstandReqHistSeqr::samples    196799901                       (Unspecified)
system.caches.m_outstandReqHistSeqr::mean     1.000000                       (Unspecified)
system.caches.m_outstandReqHistSeqr::gmean     1.000000                       (Unspecified)
system.caches.m_outstandReqHistSeqr::stdev     0.000319                       (Unspecified)
system.caches.m_outstandReqHistSeqr      |           0      0.00%      0.00% |   196799881    100.00%    100.00% |          20      0.00%    100.00% |           0      0.00%    100.00% |           0      0.00%    100.00% |           0      0.00%    100.00% |           0      0.00%    100.00% |           0      0.00%    100.00% |           0      0.00%    100.00% |           0      0.00%    100.00% (Unspecified)
system.caches.m_outstandReqHistSeqr::total    196799901                       (Unspecified)
system.caches.m_latencyHistSeqr::bucket_size          512                       (Unspecified)
system.caches.m_latencyHistSeqr::max_bucket         5119                       (Unspecified)
system.caches.m_latencyHistSeqr::samples    196799900                       (Unspecified)
system.caches.m_latencyHistSeqr::mean        3.953834                       (Unspecified)
system.caches.m_latencyHistSeqr::gmean       1.054448                       (Unspecified)
system.caches.m_latencyHistSeqr::stdev      40.413083                       (Unspecified)
system.caches.m_latencyHistSeqr          |   196470982     99.83%     99.83% |      300333      0.15%     99.99% |        8883      0.00%     99.99% |       18157      0.01%    100.00% |        1539      0.00%    100.00% |           6      0.00%    100.00% |           0      0.00%    100.00% |           0      0.00%    100.00% |           0      0.00%    100.00% |           0      0.00%    100.00% (Unspecified)
system.caches.m_latencyHistSeqr::total      196799900                       (Unspecified)
system.caches.m_hitLatencyHistSeqr::bucket_size            1                       (Unspecified)
system.caches.m_hitLatencyHistSeqr::max_bucket            9                       (Unspecified)
system.caches.m_hitLatencyHistSeqr::samples    194493354                       (Unspecified)
system.caches.m_hitLatencyHistSeqr::mean            1                       (Unspecified)
system.caches.m_hitLatencyHistSeqr::gmean            1                       (Unspecified)
system.caches.m_hitLatencyHistSeqr       |           0      0.00%      0.00% |   194493354    100.00%    100.00% |           0      0.00%    100.00% |           0      0.00%    100.00% |           0      0.00%    100.00% |           0      0.00%    100.00% |           0      0.00%    100.00% |           0      0.00%    100.00% |           0      0.00%    100.00% |           0      0.00%    100.00% (Unspecified)
system.caches.m_hitLatencyHistSeqr::total    194493354                       (Unspecified)
system.caches.m_missLatencyHistSeqr::bucket_size          512                       (Unspecified)
system.caches.m_missLatencyHistSeqr::max_bucket         5119                       (Unspecified)
system.caches.m_missLatencyHistSeqr::samples      2306546                       (Unspecified)
system.caches.m_missLatencyHistSeqr::mean   253.028060                       (Unspecified)
system.caches.m_missLatencyHistSeqr::gmean    92.166791                       (Unspecified)
system.caches.m_missLatencyHistSeqr::stdev   276.724158                       (Unspecified)
system.caches.m_missLatencyHistSeqr      |     1977628     85.74%     85.74% |      300333     13.02%     98.76% |        8883      0.39%     99.15% |       18157      0.79%     99.93% |        1539      0.07%    100.00% |           6      0.00%    100.00% |           0      0.00%    100.00% |           0      0.00%    100.00% |           0      0.00%    100.00% |           0      0.00%    100.00% (Unspecified)
system.caches.m_missLatencyHistSeqr::total      2306546                       (Unspecified)
system.caches.delayVCHist.vnet_0::bucket_size           32                       # delay histogram for vnet_0 (Unspecified)
system.caches.delayVCHist.vnet_0::max_bucket          319                       # delay histogram for vnet_0 (Unspecified)
system.caches.delayVCHist.vnet_0::samples      5899545                       # delay histogram for vnet_0 (Unspecified)
system.caches.delayVCHist.vnet_0::mean       0.374034                       # delay histogram for vnet_0 (Unspecified)
system.caches.delayVCHist.vnet_0::stdev      1.695949                       # delay histogram for vnet_0 (Unspecified)
system.caches.delayVCHist.vnet_0         |     5899542    100.00%    100.00% |           1      0.00%    100.00% |           1      0.00%    100.00% |           0      0.00%    100.00% |           0      0.00%    100.00% |           0      0.00%    100.00% |           0      0.00%    100.00% |           0      0.00%    100.00% |           0      0.00%    100.00% |           1      0.00%    100.00% # delay histogram for vnet_0 (Unspecified)
system.caches.delayVCHist.vnet_0::total       5899545                       # delay histogram for vnet_0 (Unspecified)
system.caches.delayVCHist.vnet_1::bucket_size            1                       # delay histogram for vnet_1 (Unspecified)
system.caches.delayVCHist.vnet_1::max_bucket            9                       # delay histogram for vnet_1 (Unspecified)
system.caches.delayVCHist.vnet_1::samples      6652796                       # delay histogram for vnet_1 (Unspecified)
system.caches.delayVCHist.vnet_1::mean       0.000616                       # delay histogram for vnet_1 (Unspecified)
system.caches.delayVCHist.vnet_1::stdev      0.057872                       # delay histogram for vnet_1 (Unspecified)
system.caches.delayVCHist.vnet_1         |     6651895     99.99%     99.99% |           0      0.00%     99.99% |         233      0.00%     99.99% |           0      0.00%     99.99% |         321      0.00%     99.99% |           0      0.00%     99.99% |         214      0.00%    100.00% |           0      0.00%    100.00% |         133      0.00%    100.00% |           0      0.00%    100.00% # delay histogram for vnet_1 (Unspecified)
system.caches.delayVCHist.vnet_1::total       6652796                       # delay histogram for vnet_1 (Unspecified)
system.caches.delayVCHist.vnet_2::bucket_size            1                       # delay histogram for vnet_2 (Unspecified)
system.caches.delayVCHist.vnet_2::max_bucket            9                       # delay histogram for vnet_2 (Unspecified)
system.caches.delayVCHist.vnet_2::samples       156552                       # delay histogram for vnet_2 (Unspecified)
system.caches.delayVCHist.vnet_2::mean       0.000128                       # delay histogram for vnet_2 (Unspecified)
system.caches.delayVCHist.vnet_2::stdev      0.015984                       # delay histogram for vnet_2 (Unspecified)
system.caches.delayVCHist.vnet_2         |      156542     99.99%     99.99% |           0      0.00%     99.99% |          10      0.01%    100.00% |           0      0.00%    100.00% |           0      0.00%    100.00% |           0      0.00%    100.00% |           0      0.00%    100.00% |           0      0.00%    100.00% |           0      0.00%    100.00% |           0      0.00%    100.00% # delay histogram for vnet_2 (Unspecified)
system.caches.delayVCHist.vnet_2::total        156552                       # delay histogram for vnet_2 (Unspecified)
system.caches.L1Cache_Controller.Load    |    17767443     50.12%     50.12% |    17681036     49.88%    100.00% (Unspecified)
system.caches.L1Cache_Controller.Load::total     35448479                       (Unspecified)
system.caches.L1Cache_Controller.Ifetch  |    79639349     50.18%     50.18% |    79066996     49.82%    100.00% (Unspecified)
system.caches.L1Cache_Controller.Ifetch::total    158706345                       (Unspecified)
system.caches.L1Cache_Controller.Store   |     1379367     52.15%     52.15% |     1265710     47.85%    100.00% (Unspecified)
system.caches.L1Cache_Controller.Store::total      2645077                       (Unspecified)
system.caches.L1Cache_Controller.Inv     |       46192     50.68%     50.68% |       44945     49.32%    100.00% (Unspecified)
system.caches.L1Cache_Controller.Inv::total        91137                       (Unspecified)
system.caches.L1Cache_Controller.L1_Replacement |     1115600     49.97%     49.97% |     1117091     50.03%    100.00% (Unspecified)
system.caches.L1Cache_Controller.L1_Replacement::total      2232691                       (Unspecified)
system.caches.L1Cache_Controller.Fwd_GETX |         194     41.28%     41.28% |         276     58.72%    100.00% (Unspecified)
system.caches.L1Cache_Controller.Fwd_GETX::total          470                       (Unspecified)
system.caches.L1Cache_Controller.Fwd_GETS |       32369     49.84%     49.84% |       32576     50.16%    100.00% (Unspecified)
system.caches.L1Cache_Controller.Fwd_GETS::total        64945                       (Unspecified)
system.caches.L1Cache_Controller.Data    |         218     99.09%     99.09% |           2      0.91%    100.00% (Unspecified)
system.caches.L1Cache_Controller.Data::total          220                       (Unspecified)
system.caches.L1Cache_Controller.Data_Exclusive |      873301     49.83%     49.83% |      879245     50.17%    100.00% (Unspecified)
system.caches.L1Cache_Controller.Data_Exclusive::total      1752546                       (Unspecified)
system.caches.L1Cache_Controller.DataS_fromL1 |       32576     50.16%     50.16% |       32369     49.84%    100.00% (Unspecified)
system.caches.L1Cache_Controller.DataS_fromL1::total        64945                       (Unspecified)
system.caches.L1Cache_Controller.Data_all_Acks |      224918     50.57%     50.57% |      219859     49.43%    100.00% (Unspecified)
system.caches.L1Cache_Controller.Data_all_Acks::total       444777                       (Unspecified)
system.caches.L1Cache_Controller.Ack     |       21364     48.49%     48.49% |       22694     51.51%    100.00% (Unspecified)
system.caches.L1Cache_Controller.Ack::total        44058                       (Unspecified)
system.caches.L1Cache_Controller.Ack_all |       21582     48.74%     48.74% |       22696     51.26%    100.00% (Unspecified)
system.caches.L1Cache_Controller.Ack_all::total        44278                       (Unspecified)
system.caches.L1Cache_Controller.WB_Ack  |      859591     49.89%     49.89% |      863310     50.11%    100.00% (Unspecified)
system.caches.L1Cache_Controller.WB_Ack::total      1722901                       (Unspecified)
system.caches.L1Cache_Controller.NP.Load |     1111322     49.83%     49.83% |     1118995     50.17%    100.00% (Unspecified)
system.caches.L1Cache_Controller.NP.Load::total      2230317                       (Unspecified)
system.caches.L1Cache_Controller.NP.Ifetch |        7274     62.60%     62.60% |        4346     37.40%    100.00% (Unspecified)
system.caches.L1Cache_Controller.NP.Ifetch::total        11620                       (Unspecified)
system.caches.L1Cache_Controller.NP.Store |        5702     69.99%     69.99% |        2445     30.01%    100.00% (Unspecified)
system.caches.L1Cache_Controller.NP.Store::total         8147                       (Unspecified)
system.caches.L1Cache_Controller.NP.Inv  |       33009     49.85%     49.85% |       33204     50.15%    100.00% (Unspecified)
system.caches.L1Cache_Controller.NP.Inv::total        66213                       (Unspecified)
system.caches.L1Cache_Controller.I.Load  |        4760     53.79%     53.79% |        4090     46.21%    100.00% (Unspecified)
system.caches.L1Cache_Controller.I.Load::total         8850                       (Unspecified)
system.caches.L1Cache_Controller.I.Ifetch |        1745     55.34%     55.34% |        1408     44.66%    100.00% (Unspecified)
system.caches.L1Cache_Controller.I.Ifetch::total         3153                       (Unspecified)
system.caches.L1Cache_Controller.I.Store |         211     52.88%     52.88% |         188     47.12%    100.00% (Unspecified)
system.caches.L1Cache_Controller.I.Store::total          399                       (Unspecified)
system.caches.L1Cache_Controller.I.L1_Replacement |        6643     52.11%     52.11% |        6105     47.89%    100.00% (Unspecified)
system.caches.L1Cache_Controller.I.L1_Replacement::total        12748                       (Unspecified)
system.caches.L1Cache_Controller.S.Load  |     9180054     49.15%     49.15% |     9496945     50.85%    100.00% (Unspecified)
system.caches.L1Cache_Controller.S.Load::total     18676999                       (Unspecified)
system.caches.L1Cache_Controller.S.Ifetch |    79630330     50.18%     50.18% |    79061242     49.82%    100.00% (Unspecified)
system.caches.L1Cache_Controller.S.Ifetch::total    158691572                       (Unspecified)
system.caches.L1Cache_Controller.S.Store |       21364     48.49%     48.49% |       22697     51.51%    100.00% (Unspecified)
system.caches.L1Cache_Controller.S.Store::total        44061                       (Unspecified)
system.caches.L1Cache_Controller.S.Inv   |       12806     53.00%     53.00% |       11355     47.00%    100.00% (Unspecified)
system.caches.L1Cache_Controller.S.Inv::total        24161                       (Unspecified)
system.caches.L1Cache_Controller.S.L1_Replacement |      249366     50.17%     50.17% |      247676     49.83%    100.00% (Unspecified)
system.caches.L1Cache_Controller.S.L1_Replacement::total       497042                       (Unspecified)
system.caches.L1Cache_Controller.E.Load  |     4436537     51.73%     51.73% |     4139618     48.27%    100.00% (Unspecified)
system.caches.L1Cache_Controller.E.Load::total      8576155                       (Unspecified)
system.caches.L1Cache_Controller.E.Store |      125648     50.29%     50.29% |      124193     49.71%    100.00% (Unspecified)
system.caches.L1Cache_Controller.E.Store::total       249841                       (Unspecified)
system.caches.L1Cache_Controller.E.Inv   |         277     48.68%     48.68% |         292     51.32%    100.00% (Unspecified)
system.caches.L1Cache_Controller.E.Inv::total          569                       (Unspecified)
system.caches.L1Cache_Controller.E.L1_Replacement |      723253     49.83%     49.83% |      728076     50.17%    100.00% (Unspecified)
system.caches.L1Cache_Controller.E.L1_Replacement::total      1451329                       (Unspecified)
system.caches.L1Cache_Controller.E.Fwd_GETX |           1      1.72%      1.72% |          57     98.28%    100.00% (Unspecified)
system.caches.L1Cache_Controller.E.Fwd_GETX::total           58                       (Unspecified)
system.caches.L1Cache_Controller.E.Fwd_GETS |       19331     50.87%     50.87% |       18672     49.13%    100.00% (Unspecified)
system.caches.L1Cache_Controller.E.Fwd_GETS::total        38003                       (Unspecified)
system.caches.L1Cache_Controller.M.Load  |     3034770     50.95%     50.95% |     2921388     49.05%    100.00% (Unspecified)
system.caches.L1Cache_Controller.M.Load::total      5956158                       (Unspecified)
system.caches.L1Cache_Controller.M.Store |     1226442     52.35%     52.35% |     1116187     47.65%    100.00% (Unspecified)
system.caches.L1Cache_Controller.M.Store::total      2342629                       (Unspecified)
system.caches.L1Cache_Controller.M.Inv   |         100     52.36%     52.36% |          91     47.64%    100.00% (Unspecified)
system.caches.L1Cache_Controller.M.Inv::total          191                       (Unspecified)
system.caches.L1Cache_Controller.M.L1_Replacement |      136338     50.20%     50.20% |      135234     49.80%    100.00% (Unspecified)
system.caches.L1Cache_Controller.M.L1_Replacement::total       271572                       (Unspecified)
system.caches.L1Cache_Controller.M.Fwd_GETX |         193     46.84%     46.84% |         219     53.16%    100.00% (Unspecified)
system.caches.L1Cache_Controller.M.Fwd_GETX::total          412                       (Unspecified)
system.caches.L1Cache_Controller.M.Fwd_GETS |       13038     48.39%     48.39% |       13904     51.61%    100.00% (Unspecified)
system.caches.L1Cache_Controller.M.Fwd_GETS::total        26942                       (Unspecified)
system.caches.L1Cache_Controller.IS.Data_Exclusive |      873301     49.83%     49.83% |      879245     50.17%    100.00% (Unspecified)
system.caches.L1Cache_Controller.IS.Data_Exclusive::total      1752546                       (Unspecified)
system.caches.L1Cache_Controller.IS.DataS_fromL1 |       32576     50.16%     50.16% |       32369     49.84%    100.00% (Unspecified)
system.caches.L1Cache_Controller.IS.DataS_fromL1::total        64945                       (Unspecified)
system.caches.L1Cache_Controller.IS.Data_all_Acks |      219224     50.23%     50.23% |      217225     49.77%    100.00% (Unspecified)
system.caches.L1Cache_Controller.IS.Data_all_Acks::total       436449                       (Unspecified)
system.caches.L1Cache_Controller.IM.Data |         218     99.09%     99.09% |           2      0.91%    100.00% (Unspecified)
system.caches.L1Cache_Controller.IM.Data::total          220                       (Unspecified)
system.caches.L1Cache_Controller.IM.Data_all_Acks |        5694     68.37%     68.37% |        2634     31.63%    100.00% (Unspecified)
system.caches.L1Cache_Controller.IM.Data_all_Acks::total         8328                       (Unspecified)
system.caches.L1Cache_Controller.SM.Inv  |           0      0.00%      0.00% |           3    100.00%    100.00% (Unspecified)
system.caches.L1Cache_Controller.SM.Inv::total            3                       (Unspecified)
system.caches.L1Cache_Controller.SM.Ack  |       21364     48.49%     48.49% |       22694     51.51%    100.00% (Unspecified)
system.caches.L1Cache_Controller.SM.Ack::total        44058                       (Unspecified)
system.caches.L1Cache_Controller.SM.Ack_all |       21582     48.74%     48.74% |       22696     51.26%    100.00% (Unspecified)
system.caches.L1Cache_Controller.SM.Ack_all::total        44278                       (Unspecified)
system.caches.L1Cache_Controller.M_I.WB_Ack |      859591     49.89%     49.89% |      863310     50.11%    100.00% (Unspecified)
system.caches.L1Cache_Controller.M_I.WB_Ack::total      1722901                       (Unspecified)
system.caches.Directory_Controller.Fetch      1299170      0.00%      0.00% (Unspecified)
system.caches.Directory_Controller.Data        174323      0.00%      0.00% (Unspecified)
system.caches.Directory_Controller.Memory_Data      1299169      0.00%      0.00% (Unspecified)
system.caches.Directory_Controller.Memory_Ack       174323      0.00%      0.00% (Unspecified)
system.caches.Directory_Controller.CleanReplacement       993775      0.00%      0.00% (Unspecified)
system.caches.Directory_Controller.I.Fetch      1299170      0.00%      0.00% (Unspecified)
system.caches.Directory_Controller.M.Data       174323      0.00%      0.00% (Unspecified)
system.caches.Directory_Controller.M.CleanReplacement       993775      0.00%      0.00% (Unspecified)
system.caches.Directory_Controller.IM.Memory_Data      1299169      0.00%      0.00% (Unspecified)
system.caches.Directory_Controller.MI.Memory_Ack       174323      0.00%      0.00% (Unspecified)
system.caches.L2Cache_Controller.L1_GET_INSTR |        1165      7.88%      7.88% |        2231     15.09%     22.97% |        1751     11.85%     34.82% |        1059      7.16%     41.98% |        1563     10.57%     52.56% |        2158     14.60%     67.16% |        2542     17.20%     84.35% |        2313     15.65%    100.00% (Unspecified)
system.caches.L2Cache_Controller.L1_GET_INSTR::total        14782                       (Unspecified)
system.caches.L2Cache_Controller.L1_GETS |      282851     12.63%     12.63% |      282670     12.62%     25.25% |      279845     12.50%     37.75% |      279486     12.48%     50.23% |      277792     12.40%     62.63% |      280233     12.51%     75.15% |      279878     12.50%     87.64% |      276713     12.36%    100.00% (Unspecified)
system.caches.L2Cache_Controller.L1_GETS::total      2239468                       (Unspecified)
system.caches.L2Cache_Controller.L1_GETX |        1412     16.51%     16.51% |        1207     14.12%     30.63% |         548      6.41%     37.04% |         821      9.60%     46.64% |         797      9.32%     55.96% |        1475     17.25%     73.21% |         970     11.34%     84.55% |        1321     15.45%    100.00% (Unspecified)
system.caches.L2Cache_Controller.L1_GETX::total         8551                       (Unspecified)
system.caches.L2Cache_Controller.L1_UPGRADE |        5456     12.32%     12.32% |        5665     12.79%     25.10% |        5547     12.52%     37.62% |        5394     12.18%     49.80% |        5260     11.87%     61.67% |        5466     12.34%     74.01% |        6143     13.87%     87.88% |        5371     12.12%    100.00% (Unspecified)
system.caches.L2Cache_Controller.L1_UPGRADE::total        44302                       (Unspecified)
system.caches.L2Cache_Controller.L1_PUTX |      216416     12.56%     12.56% |      216063     12.54%     25.10% |      214677     12.46%     37.56% |      214167     12.43%     49.99% |      215080     12.48%     62.48% |      216126     12.54%     75.02% |      215503     12.51%     87.53% |      214869     12.47%    100.00% (Unspecified)
system.caches.L2Cache_Controller.L1_PUTX::total      1722901                       (Unspecified)
system.caches.L2Cache_Controller.L2_Replacement |       21745     12.48%     12.48% |       21821     12.52%     25.00% |       21716     12.46%     37.46% |       21621     12.41%     49.87% |       21763     12.49%     62.36% |       21848     12.54%     74.89% |       21908     12.57%     87.47% |       21841     12.53%    100.00% (Unspecified)
system.caches.L2Cache_Controller.L2_Replacement::total       174263                       (Unspecified)
system.caches.L2Cache_Controller.L2_Replacement_clean |      124406     12.52%     12.52% |      124359     12.51%     25.03% |      123610     12.44%     37.47% |      123804     12.46%     49.93% |      124386     12.52%     62.44% |      124299     12.51%     74.95% |      124616     12.54%     87.49% |      124355     12.51%    100.00% (Unspecified)
system.caches.L2Cache_Controller.L2_Replacement_clean::total       993835                       (Unspecified)
system.caches.L2Cache_Controller.Mem_Data |      162535     12.51%     12.51% |      162564     12.51%     25.02% |      161709     12.45%     37.47% |      161809     12.45%     49.93% |      162533     12.51%     62.44% |      162531     12.51%     74.95% |      162908     12.54%     87.49% |      162580     12.51%    100.00% (Unspecified)
system.caches.L2Cache_Controller.Mem_Data::total      1299169                       (Unspecified)
system.caches.L2Cache_Controller.Mem_Ack |      146151     12.51%     12.51% |      146180     12.51%     25.03% |      145326     12.44%     37.47% |      145425     12.45%     49.92% |      146149     12.51%     62.43% |      146147     12.51%     74.94% |      146524     12.54%     87.48% |      146196     12.52%    100.00% (Unspecified)
system.caches.L2Cache_Controller.Mem_Ack::total      1168098                       (Unspecified)
system.caches.L2Cache_Controller.WB_Data |        3449     12.71%     12.71% |        3319     12.23%     24.94% |        3224     11.88%     36.83% |        3285     12.11%     48.93% |        3251     11.98%     60.91% |        3417     12.59%     73.51% |        3867     14.25%     87.76% |        3321     12.24%    100.00% (Unspecified)
system.caches.L2Cache_Controller.WB_Data::total        27133                       (Unspecified)
system.caches.L2Cache_Controller.WB_Data_clean |        4728     12.44%     12.44% |        4923     12.95%     25.40% |        4922     12.95%     38.35% |        4667     12.28%     50.63% |        4663     12.27%     62.90% |        4762     12.53%     75.43% |        4713     12.40%     87.83% |        4625     12.17%    100.00% (Unspecified)
system.caches.L2Cache_Controller.WB_Data_clean::total        38003                       (Unspecified)
system.caches.L2Cache_Controller.Ack     |        2727     12.44%     12.44% |        2743     12.52%     24.96% |        2721     12.42%     37.37% |        2687     12.26%     49.63% |        2814     12.84%     62.47% |        2843     12.97%     75.45% |        2717     12.40%     87.84% |        2664     12.16%    100.00% (Unspecified)
system.caches.L2Cache_Controller.Ack::total        21916                       (Unspecified)
system.caches.L2Cache_Controller.Ack_all |        3138     12.68%     12.68% |        3114     12.58%     25.26% |        3052     12.33%     37.59% |        3026     12.23%     49.81% |        3159     12.76%     62.58% |        3184     12.86%     75.44% |        3059     12.36%     87.80% |        3020     12.20%    100.00% (Unspecified)
system.caches.L2Cache_Controller.Ack_all::total        24752                       (Unspecified)
system.caches.L2Cache_Controller.Unblock |        8141     12.54%     12.54% |        8226     12.67%     25.20% |        8132     12.52%     37.72% |        7930     12.21%     49.93% |        7893     12.15%     62.09% |        8154     12.56%     74.64% |        8559     13.18%     87.82% |        7910     12.18%    100.00% (Unspecified)
system.caches.L2Cache_Controller.Unblock::total        64945                       (Unspecified)
system.caches.L2Cache_Controller.Exclusive_Unblock |      226772     12.56%     12.56% |      226735     12.56%     25.12% |      224884     12.46%     37.58% |      224182     12.42%     50.00% |      225080     12.47%     62.47% |      226402     12.54%     75.01% |      226175     12.53%     87.54% |      224922     12.46%    100.00% (Unspecified)
system.caches.L2Cache_Controller.Exclusive_Unblock::total      1805152                       (Unspecified)
system.caches.L2Cache_Controller.NP.L1_GET_INSTR |         658     13.14%     13.14% |         666     13.30%     26.44% |         602     12.02%     38.47% |         620     12.38%     50.85% |         625     12.48%     63.33% |         633     12.64%     75.97% |         598     11.94%     87.92% |         605     12.08%    100.00% (Unspecified)
system.caches.L2Cache_Controller.NP.L1_GET_INSTR::total         5007                       (Unspecified)
system.caches.L2Cache_Controller.NP.L1_GETS |      161573     12.51%     12.51% |      161588     12.51%     25.02% |      160807     12.45%     37.47% |      160892     12.46%     49.92% |      161611     12.51%     62.44% |      161579     12.51%     74.94% |      161990     12.54%     87.49% |      161651     12.51%    100.00% (Unspecified)
system.caches.L2Cache_Controller.NP.L1_GETS::total      1291691                       (Unspecified)
system.caches.L2Cache_Controller.NP.L1_GETX |         304     12.30%     12.30% |         310     12.54%     24.84% |         301     12.18%     37.01% |         297     12.01%     49.03% |         297     12.01%     61.04% |         319     12.90%     73.95% |         320     12.94%     86.89% |         324     13.11%    100.00% (Unspecified)
system.caches.L2Cache_Controller.NP.L1_GETX::total         2472                       (Unspecified)
system.caches.L2Cache_Controller.SS.L1_GET_INSTR |         421      4.58%      4.58% |        1476     16.06%     20.64% |        1084     11.79%     32.43% |         376      4.09%     36.52% |         861      9.37%     45.89% |        1449     15.77%     61.66% |        1885     20.51%     82.17% |        1639     17.83%    100.00% (Unspecified)
system.caches.L2Cache_Controller.SS.L1_GET_INSTR::total         9191                       (Unspecified)
system.caches.L2Cache_Controller.SS.L1_GETS |       54747     12.99%     12.99% |       54564     12.94%     25.93% |       52910     12.55%     38.48% |       53559     12.71%     51.19% |       50846     12.06%     63.25% |       52610     12.48%     75.73% |       51731     12.27%     88.01% |       50551     11.99%    100.00% (Unspecified)
system.caches.L2Cache_Controller.SS.L1_GETS::total       421518                       (Unspecified)
system.caches.L2Cache_Controller.SS.L1_GETX |         135     61.36%     61.36% |           0      0.00%     61.36% |           0      0.00%     61.36% |           0      0.00%     61.36% |           5      2.27%     63.64% |           0      0.00%     63.64% |          79     35.91%     99.55% |           1      0.45%    100.00% (Unspecified)
system.caches.L2Cache_Controller.SS.L1_GETX::total          220                       (Unspecified)
system.caches.L2Cache_Controller.SS.L1_UPGRADE |        5456     12.38%     12.38% |        5664     12.86%     25.24% |        5547     12.59%     37.83% |        5394     12.24%     50.07% |        5260     11.94%     62.01% |        5466     12.41%     74.42% |        5904     13.40%     87.82% |        5367     12.18%    100.00% (Unspecified)
system.caches.L2Cache_Controller.SS.L1_UPGRADE::total        44058                       (Unspecified)
system.caches.L2Cache_Controller.SS.L2_Replacement |        1977     12.32%     12.32% |        1996     12.44%     24.76% |        2023     12.61%     37.36% |        1980     12.34%     49.70% |        2069     12.89%     62.59% |        2000     12.46%     75.06% |        2007     12.51%     87.56% |        1996     12.44%    100.00% (Unspecified)
system.caches.L2Cache_Controller.SS.L2_Replacement::total        16048                       (Unspecified)
system.caches.L2Cache_Controller.SS.L2_Replacement_clean |        1051     12.92%     12.92% |        1040     12.78%     25.70% |         978     12.02%     37.73% |         994     12.22%     49.94% |        1017     12.50%     62.45% |        1116     13.72%     76.16% |         984     12.10%     88.26% |         955     11.74%    100.00% (Unspecified)
system.caches.L2Cache_Controller.SS.L2_Replacement_clean::total         8135                       (Unspecified)
system.caches.L2Cache_Controller.M.L1_GETS |       58359     12.66%     12.66% |       58284     12.64%     25.31% |       57989     12.58%     37.89% |       57090     12.39%     50.27% |       57425     12.46%     62.73% |       57886     12.56%     75.29% |       57314     12.43%     87.72% |       56587     12.28%    100.00% (Unspecified)
system.caches.L2Cache_Controller.M.L1_GETS::total       460934                       (Unspecified)
system.caches.L2Cache_Controller.M.L1_GETX |         895     16.61%     16.61% |         564     10.47%     27.08% |         243      4.51%     31.59% |         512      9.50%     41.10% |         494      9.17%     50.27% |        1145     21.25%     71.52% |         567     10.53%     82.05% |         967     17.95%    100.00% (Unspecified)
system.caches.L2Cache_Controller.M.L1_GETX::total         5387                       (Unspecified)
system.caches.L2Cache_Controller.M.L2_Replacement |       19737     12.49%     12.49% |       19804     12.53%     25.02% |       19683     12.46%     37.48% |       19623     12.42%     49.90% |       19670     12.45%     62.34% |       19816     12.54%     74.88% |       19877     12.58%     87.46% |       19813     12.54%    100.00% (Unspecified)
system.caches.L2Cache_Controller.M.L2_Replacement::total       158023                       (Unspecified)
system.caches.L2Cache_Controller.M.L2_Replacement_clean |      123240     12.51%     12.51% |      123246     12.51%     25.02% |      122577     12.44%     37.46% |      122754     12.46%     49.92% |      123299     12.52%     62.44% |      123122     12.50%     74.94% |      123567     12.54%     87.48% |      123327     12.52%    100.00% (Unspecified)
system.caches.L2Cache_Controller.M.L2_Replacement_clean::total       985132                       (Unspecified)
system.caches.L2Cache_Controller.MT.L1_GETS |        8141     12.54%     12.54% |        8226     12.67%     25.20% |        8132     12.52%     37.72% |        7930     12.21%     49.93% |        7893     12.15%     62.09% |        8154     12.56%     74.64% |        8559     13.18%     87.82% |        7910     12.18%    100.00% (Unspecified)
system.caches.L2Cache_Controller.MT.L1_GETS::total        64945                       (Unspecified)
system.caches.L2Cache_Controller.MT.L1_GETX |          77     16.38%     16.38% |         333     70.85%     87.23% |           4      0.85%     88.09% |          12      2.55%     90.64% |           1      0.21%     90.85% |          11      2.34%     93.19% |           3      0.64%     93.83% |          29      6.17%    100.00% (Unspecified)
system.caches.L2Cache_Controller.MT.L1_GETX::total          470                       (Unspecified)
system.caches.L2Cache_Controller.MT.L1_PUTX |      216416     12.56%     12.56% |      216063     12.54%     25.10% |      214677     12.46%     37.56% |      214167     12.43%     49.99% |      215080     12.48%     62.48% |      216126     12.54%     75.02% |      215503     12.51%     87.53% |      214869     12.47%    100.00% (Unspecified)
system.caches.L2Cache_Controller.MT.L1_PUTX::total      1722901                       (Unspecified)
system.caches.L2Cache_Controller.MT.L2_Replacement |          31     16.15%     16.15% |          21     10.94%     27.08% |          10      5.21%     32.29% |          18      9.38%     41.67% |          24     12.50%     54.17% |          32     16.67%     70.83% |          24     12.50%     83.33% |          32     16.67%    100.00% (Unspecified)
system.caches.L2Cache_Controller.MT.L2_Replacement::total          192                       (Unspecified)
system.caches.L2Cache_Controller.MT.L2_Replacement_clean |         115     20.25%     20.25% |          73     12.85%     33.10% |          55      9.68%     42.78% |          56      9.86%     52.64% |          70     12.32%     64.96% |          61     10.74%     75.70% |          65     11.44%     87.15% |          73     12.85%    100.00% (Unspecified)
system.caches.L2Cache_Controller.MT.L2_Replacement_clean::total          568                       (Unspecified)
system.caches.L2Cache_Controller.M_I.L1_GET_INSTR |           0      0.00%      0.00% |           0      0.00%      0.00% |           2     22.22%     22.22% |           3     33.33%     55.56% |           3     33.33%     88.89% |           1     11.11%    100.00% |           0      0.00%    100.00% |           0      0.00%    100.00% (Unspecified)
system.caches.L2Cache_Controller.M_I.L1_GET_INSTR::total            9                       (Unspecified)
system.caches.L2Cache_Controller.M_I.L1_GETS |           2     40.00%     40.00% |           0      0.00%     40.00% |           0      0.00%     40.00% |           0      0.00%     40.00% |           1     20.00%     60.00% |           0      0.00%     60.00% |           0      0.00%     60.00% |           2     40.00%    100.00% (Unspecified)
system.caches.L2Cache_Controller.M_I.L1_GETS::total            5                       (Unspecified)
system.caches.L2Cache_Controller.M_I.L1_GETX |           1    100.00%    100.00% |           0      0.00%    100.00% |           0      0.00%    100.00% |           0      0.00%    100.00% |           0      0.00%    100.00% |           0      0.00%    100.00% |           0      0.00%    100.00% |           0      0.00%    100.00% (Unspecified)
system.caches.L2Cache_Controller.M_I.L1_GETX::total            1                       (Unspecified)
system.caches.L2Cache_Controller.M_I.Mem_Ack |      146151     12.51%     12.51% |      146180     12.51%     25.03% |      145326     12.44%     37.47% |      145425     12.45%     49.92% |      146149     12.51%     62.43% |      146147     12.51%     74.94% |      146524     12.54%     87.48% |      146196     12.52%    100.00% (Unspecified)
system.caches.L2Cache_Controller.M_I.Mem_Ack::total      1168098                       (Unspecified)
system.caches.L2Cache_Controller.MT_I.WB_Data |          24     18.32%     18.32% |          10      7.63%     25.95% |           6      4.58%     30.53% |          15     11.45%     41.98% |          15     11.45%     53.44% |          21     16.03%     69.47% |          16     12.21%     81.68% |          24     18.32%    100.00% (Unspecified)
system.caches.L2Cache_Controller.MT_I.WB_Data::total          131                       (Unspecified)
system.caches.L2Cache_Controller.MT_I.Ack_all |           7     11.48%     11.48% |          11     18.03%     29.51% |           4      6.56%     36.07% |           3      4.92%     40.98% |           9     14.75%     55.74% |          11     18.03%     73.77% |           8     13.11%     86.89% |           8     13.11%    100.00% (Unspecified)
system.caches.L2Cache_Controller.MT_I.Ack_all::total           61                       (Unspecified)
system.caches.L2Cache_Controller.MCT_I.WB_Data |          12     20.00%     20.00% |           6     10.00%     30.00% |           8     13.33%     43.33% |           7     11.67%     55.00% |           6     10.00%     65.00% |           4      6.67%     71.67% |           5      8.33%     80.00% |          12     20.00%    100.00% (Unspecified)
system.caches.L2Cache_Controller.MCT_I.WB_Data::total           60                       (Unspecified)
system.caches.L2Cache_Controller.MCT_I.Ack_all |         103     20.28%     20.28% |          67     13.19%     33.46% |          47      9.25%     42.72% |          49      9.65%     52.36% |          64     12.60%     64.96% |          57     11.22%     76.18% |          60     11.81%     87.99% |          61     12.01%    100.00% (Unspecified)
system.caches.L2Cache_Controller.MCT_I.Ack_all::total          508                       (Unspecified)
system.caches.L2Cache_Controller.I_I.Ack |         750     12.78%     12.78% |         747     12.73%     25.51% |         698     11.90%     37.41% |         707     12.05%     49.45% |         745     12.70%     62.15% |         843     14.37%     76.52% |         710     12.10%     88.62% |         668     11.38%    100.00% (Unspecified)
system.caches.L2Cache_Controller.I_I.Ack::total         5868                       (Unspecified)
system.caches.L2Cache_Controller.I_I.Ack_all |        1051     12.92%     12.92% |        1040     12.78%     25.70% |         978     12.02%     37.73% |         994     12.22%     49.94% |        1017     12.50%     62.45% |        1116     13.72%     76.16% |         984     12.10%     88.26% |         955     11.74%    100.00% (Unspecified)
system.caches.L2Cache_Controller.I_I.Ack_all::total         8135                       (Unspecified)
system.caches.L2Cache_Controller.S_I.Ack |        1977     12.32%     12.32% |        1996     12.44%     24.76% |        2023     12.61%     37.36% |        1980     12.34%     49.70% |        2069     12.89%     62.59% |        2000     12.46%     75.06% |        2007     12.51%     87.56% |        1996     12.44%    100.00% (Unspecified)
system.caches.L2Cache_Controller.S_I.Ack::total        16048                       (Unspecified)
system.caches.L2Cache_Controller.S_I.Ack_all |        1977     12.32%     12.32% |        1996     12.44%     24.76% |        2023     12.61%     37.36% |        1980     12.34%     49.70% |        2069     12.89%     62.59% |        2000     12.46%     75.06% |        2007     12.51%     87.56% |        1996     12.44%    100.00% (Unspecified)
system.caches.L2Cache_Controller.S_I.Ack_all::total        16048                       (Unspecified)
system.caches.L2Cache_Controller.ISS.L1_GETS |          27     34.18%     34.18% |           8     10.13%     44.30% |           6      7.59%     51.90% |          15     18.99%     70.89% |          13     16.46%     87.34% |           4      5.06%     92.41% |           2      2.53%     94.94% |           4      5.06%    100.00% (Unspecified)
system.caches.L2Cache_Controller.ISS.L1_GETS::total           79                       (Unspecified)
system.caches.L2Cache_Controller.ISS.Mem_Data |      161546     12.51%     12.51% |      161580     12.51%     25.02% |      160801     12.45%     37.47% |      160877     12.46%     49.92% |      161598     12.51%     62.43% |      161575     12.51%     74.94% |      161988     12.54%     87.48% |      161647     12.52%    100.00% (Unspecified)
system.caches.L2Cache_Controller.ISS.Mem_Data::total      1291612                       (Unspecified)
system.caches.L2Cache_Controller.IS.L1_GET_INSTR |          86     14.96%     14.96% |          89     15.48%     30.43% |          63     10.96%     41.39% |          60     10.43%     51.83% |          74     12.87%     64.70% |          75     13.04%     77.74% |          59     10.26%     88.00% |          69     12.00%    100.00% (Unspecified)
system.caches.L2Cache_Controller.IS.L1_GET_INSTR::total          575                       (Unspecified)
system.caches.L2Cache_Controller.IS.Mem_Data |         685     13.47%     13.47% |         674     13.25%     26.72% |         608     11.95%     38.67% |         635     12.49%     51.16% |         638     12.54%     63.70% |         637     12.52%     76.23% |         600     11.80%     88.03% |         609     11.97%    100.00% (Unspecified)
system.caches.L2Cache_Controller.IS.Mem_Data::total         5086                       (Unspecified)
system.caches.L2Cache_Controller.IM.Mem_Data |         304     12.30%     12.30% |         310     12.55%     24.85% |         300     12.14%     36.99% |         297     12.02%     49.01% |         297     12.02%     61.03% |         319     12.91%     73.94% |         320     12.95%     86.89% |         324     13.11%    100.00% (Unspecified)
system.caches.L2Cache_Controller.IM.Mem_Data::total         2471                       (Unspecified)
system.caches.L2Cache_Controller.SS_MB.L1_GETS |           2      0.69%      0.69% |           0      0.00%      0.69% |           0      0.00%      0.69% |           0      0.00%      0.69% |           3      1.04%      1.74% |           0      0.00%      1.74% |         280     97.22%     98.96% |           3      1.04%    100.00% (Unspecified)
system.caches.L2Cache_Controller.SS_MB.L1_GETS::total          288                       (Unspecified)
system.caches.L2Cache_Controller.SS_MB.L1_GETX |           0      0.00%      0.00% |           0      0.00%      0.00% |           0      0.00%      0.00% |           0      0.00%      0.00% |           0      0.00%      0.00% |           0      0.00%      0.00% |           1    100.00%    100.00% |           0      0.00%    100.00% (Unspecified)
system.caches.L2Cache_Controller.SS_MB.L1_GETX::total            1                       (Unspecified)
system.caches.L2Cache_Controller.SS_MB.L1_UPGRADE |           0      0.00%      0.00% |           0      0.00%      0.00% |           0      0.00%      0.00% |           0      0.00%      0.00% |           0      0.00%      0.00% |           0      0.00%      0.00% |           0      0.00%      0.00% |           3    100.00%    100.00% (Unspecified)
system.caches.L2Cache_Controller.SS_MB.L1_UPGRADE::total            3                       (Unspecified)
system.caches.L2Cache_Controller.SS_MB.Exclusive_Unblock |        5591     12.63%     12.63% |        5664     12.79%     25.42% |        5547     12.53%     37.95% |        5394     12.18%     50.13% |        5265     11.89%     62.02% |        5466     12.34%     74.36% |        5983     13.51%     87.88% |        5368     12.12%    100.00% (Unspecified)
system.caches.L2Cache_Controller.SS_MB.Exclusive_Unblock::total        44278                       (Unspecified)
system.caches.L2Cache_Controller.MT_MB.L1_GETS |           0      0.00%      0.00% |           0      0.00%      0.00% |           1     12.50%     12.50% |           0      0.00%     12.50% |           0      0.00%     12.50% |           0      0.00%     12.50% |           2     25.00%     37.50% |           5     62.50%    100.00% (Unspecified)
system.caches.L2Cache_Controller.MT_MB.L1_GETS::total            8                       (Unspecified)
system.caches.L2Cache_Controller.MT_MB.Exclusive_Unblock |      221181     12.56%     12.56% |      221071     12.55%     25.12% |      219337     12.46%     37.57% |      218788     12.42%     50.00% |      219815     12.48%     62.48% |      220936     12.55%     75.03% |      220192     12.50%     87.53% |      219554     12.47%    100.00% (Unspecified)
system.caches.L2Cache_Controller.MT_MB.Exclusive_Unblock::total      1760874                       (Unspecified)
system.caches.L2Cache_Controller.MT_IIB.WB_Data |        3413     12.67%     12.67% |        3303     12.26%     24.93% |        3210     11.91%     36.84% |        3263     12.11%     48.95% |        3230     11.99%     60.94% |        3392     12.59%     73.53% |        3846     14.28%     87.81% |        3285     12.19%    100.00% (Unspecified)
system.caches.L2Cache_Controller.MT_IIB.WB_Data::total        26942                       (Unspecified)
system.caches.L2Cache_Controller.MT_IIB.WB_Data_clean |        4728     12.44%     12.44% |        4923     12.95%     25.40% |        4922     12.95%     38.35% |        4667     12.28%     50.63% |        4663     12.27%     62.90% |        4762     12.53%     75.43% |        4713     12.40%     87.83% |        4625     12.17%    100.00% (Unspecified)
system.caches.L2Cache_Controller.MT_IIB.WB_Data_clean::total        38003                       (Unspecified)
system.caches.L2Cache_Controller.MT_SB.L1_UPGRADE |           0      0.00%      0.00% |           1      0.41%      0.41% |           0      0.00%      0.41% |           0      0.00%      0.41% |           0      0.00%      0.41% |           0      0.00%      0.41% |         239     99.17%     99.59% |           1      0.41%    100.00% (Unspecified)
[...]
system.timingCpu0.exec_context.thread_0.statExecutedInstType::SimdSha1Hash2            0      0.00%     82.64% # Class of executed instruction. (Count)
system.timingCpu0.exec_context.thread_0.statExecutedInstType::SimdSha256Hash            0      0.00%     82.64% # Class of executed instruction. (Count)
system.timingCpu0.exec_context.thread_0.statExecutedInstType::SimdSha256Hash2            0      0.00%     82.64% # Class of executed instruction. (Count)
system.timingCpu0.exec_context.thread_0.statExecutedInstType::SimdShaSigma2            0      0.00%     82.64% # Class of executed instruction. (Count)
system.timingCpu0.exec_context.thread_0.statExecutedInstType::SimdShaSigma3            0      0.00%     82.64% # Class of executed instruction. (Count)
system.timingCpu0.exec_context.thread_0.statExecutedInstType::SimdPredAlu            0      0.00%     82.64% # Class of executed instruction. (Count)
system.timingCpu0.exec_context.thread_0.statExecutedInstType::MemRead     16356723     16.32%     98.96% # Class of executed instruction. (Count)
system.timingCpu0.exec_context.thread_0.statExecutedInstType::MemWrite      1044164      1.04%    100.00% # Class of executed instruction. (Count)
system.timingCpu0.exec_context.thread_0.statExecutedInstType::FloatMemRead          699      0.00%    100.00% # Class of executed instruction. (Count)
system.timingCpu0.exec_context.thread_0.statExecutedInstType::FloatMemWrite         2579      0.00%    100.00% # Class of executed instruction. (Count)
system.timingCpu0.exec_context.thread_0.statExecutedInstType::IprAccess            0      0.00%    100.00% # Class of executed instruction. (Count)
system.timingCpu0.exec_context.thread_0.statExecutedInstType::InstPrefetch            0      0.00%    100.00% # Class of executed instruction. (Count)
system.timingCpu0.exec_context.thread_0.statExecutedInstType::total    100237651                       # Class of executed instruction. (Count)
system.timingCpu0.mmu.dtb.rdAccesses         16792278                       # TLB accesses on read requests (Count)
system.timingCpu0.mmu.dtb.wrAccesses          1047101                       # TLB accesses on write requests (Count)
system.timingCpu0.mmu.dtb.rdMisses             434861                       # TLB misses on read requests (Count)
system.timingCpu0.mmu.dtb.wrMisses                361                       # TLB misses on write requests (Count)
system.timingCpu0.mmu.dtb.walker.power_state.pwrStateResidencyTicks::UNDEFINED 150532299822001                       # Cumulative time (in ticks) in various power states (Tick)
system.timingCpu0.mmu.itb.rdAccesses                0                       # TLB accesses on read requests (Count)
system.timingCpu0.mmu.itb.wrAccesses         79640058                       # TLB accesses on write requests (Count)
system.timingCpu0.mmu.itb.rdMisses                  0                       # TLB misses on read requests (Count)
system.timingCpu0.mmu.itb.wrMisses                709                       # TLB misses on write requests (Count)
system.timingCpu0.mmu.itb.walker.power_state.pwrStateResidencyTicks::UNDEFINED 150532299822001                       # Cumulative time (in ticks) in various power states (Tick)
system.timingCpu0.power_state.numTransitions            4                       # Number of power state transitions (Count)
system.timingCpu0.power_state.ticksClkGated::samples            2                       # Distribution of time spent in the clock gated state (Tick)
system.timingCpu0.power_state.ticksClkGated::mean     26304250                       # Distribution of time spent in the clock gated state (Tick)
system.timingCpu0.power_state.ticksClkGated::stdev 20925410.975653                       # Distribution of time spent in the clock gated state (Tick)
system.timingCpu0.power_state.ticksClkGated::1000-5e+10            2    100.00%    100.00% # Distribution of time spent in the clock gated state (Tick)
system.timingCpu0.power_state.ticksClkGated::min_value     11507750                       # Distribution of time spent in the clock gated state (Tick)
system.timingCpu0.power_state.ticksClkGated::max_value     41100750                       # Distribution of time spent in the clock gated state (Tick)
system.timingCpu0.power_state.ticksClkGated::total            2                       # Distribution of time spent in the clock gated state (Tick)
system.timingCpu0.power_state.pwrStateResidencyTicks::ON  71288314251                       # Cumulative time (in ticks) in various power states (Tick)
system.timingCpu0.power_state.pwrStateResidencyTicks::CLK_GATED     52608500                       # Cumulative time (in ticks) in various power states (Tick)
system.timingCpu0.power_state.pwrStateResidencyTicks::OFF 150460958899250                       # Cumulative time (in ticks) in various power states (Tick)
system.timingCpu0.thread_0.numInsts                 0                       # Number of Instructions committed (Count)
system.timingCpu0.thread_0.numOps                   0                       # Number of Ops committed (Count)
system.timingCpu0.thread_0.numMemRefs               0                       # Number of Memory References (Count)
system.timingCpu1.numCycles                 487866589                       # Number of cpu cycles simulated (Cycle)
system.timingCpu1.numWorkItemsStarted               0                       # Number of work items this cpu started (Count)
system.timingCpu1.numWorkItemsCompleted             0                       # Number of work items this cpu completed (Count)
system.timingCpu1.exec_context.thread_0.numInsts     63123474                       # Number of instructions committed (Count)
system.timingCpu1.exec_context.thread_0.numOps     98962945                       # Number of ops (including micro ops) committed (Count)
system.timingCpu1.exec_context.thread_0.numIntAluAccesses     97886999                       # Number of integer alu accesses (Count)
system.timingCpu1.exec_context.thread_0.numFpAluAccesses          942                       # Number of float alu accesses (Count)
system.timingCpu1.exec_context.thread_0.numVecAluAccesses            0                       # Number of vector alu accesses (Count)
system.timingCpu1.exec_context.thread_0.numCallsReturns        37190                       # Number of times a function call or return occured (Count)
system.timingCpu1.exec_context.thread_0.numCondCtrlInsts     10248554                       # Number of instructions that are conditional controls (Count)
system.timingCpu1.exec_context.thread_0.numIntInsts     97886999                       # Number of integer instructions (Count)
system.timingCpu1.exec_context.thread_0.numFpInsts          942                       # Number of float instructions (Count)
system.timingCpu1.exec_context.thread_0.numVecInsts            0                       # Number of vector instructions (Count)
system.timingCpu1.exec_context.thread_0.numIntRegReads    135583850                       # Number of times the integer registers were read (Count)
system.timingCpu1.exec_context.thread_0.numIntRegWrites     73597800                       # Number of times the integer registers were written (Count)
system.timingCpu1.exec_context.thread_0.numFpRegReads         1402                       # Number of times the floating registers were read (Count)
system.timingCpu1.exec_context.thread_0.numFpRegWrites          724                       # Number of times the floating registers were written (Count)
system.timingCpu1.exec_context.thread_0.numVecRegReads            0                       # Number of times the vector registers were read (Count)
system.timingCpu1.exec_context.thread_0.numVecRegWrites            0                       # Number of times the vector registers were written (Count)
system.timingCpu1.exec_context.thread_0.numVecPredRegReads            0                       # Number of times the predicate registers were read (Count)
system.timingCpu1.exec_context.thread_0.numVecPredRegWrites            0                       # Number of times the predicate registers were written (Count)
system.timingCpu1.exec_context.thread_0.numCCRegReads     76688014                       # Number of times the CC registers were read (Count)
system.timingCpu1.exec_context.thread_0.numCCRegWrites     43699538                       # Number of times the CC registers were written (Count)
system.timingCpu1.exec_context.thread_0.numMiscRegReads     40926214                       # Number of times the Misc registers were read (Count)
system.timingCpu1.exec_context.thread_0.numMiscRegWrites         6616                       # Number of times the Misc registers were written (Count)
system.timingCpu1.exec_context.thread_0.numMemRefs     17185954                       # Number of memory refs (Count)
system.timingCpu1.exec_context.thread_0.numLoadInsts     16243385                       # Number of load instructions (Count)
system.timingCpu1.exec_context.thread_0.numStoreInsts       942569                       # Number of store instructions (Count)
system.timingCpu1.exec_context.thread_0.numIdleCycles            0                       # Number of idle cycles (Cycle)
system.timingCpu1.exec_context.thread_0.numBusyCycles    487866589                       # Number of busy cycles (Cycle)
system.timingCpu1.exec_context.thread_0.notIdleFraction            1                       # Percentage of non-idle cycles (Ratio)
system.timingCpu1.exec_context.thread_0.idleFraction            0                       # Percentage of idle cycles (Ratio)
system.timingCpu1.exec_context.thread_0.numBranches     11871502                       # Number of branches fetched (Count)
system.timingCpu1.exec_context.thread_0.statExecutedInstType::No_OpClass          928      0.00%      0.00% # Class of executed instruction. (Count)
system.timingCpu1.exec_context.thread_0.statExecutedInstType::IntAlu     81766983     82.62%     82.62% # Class of executed instruction. (Count)
system.timingCpu1.exec_context.thread_0.statExecutedInstType::IntMult         2898      0.00%     82.63% # Class of executed instruction. (Count)
system.timingCpu1.exec_context.thread_0.statExecutedInstType::IntDiv         5568      0.01%     82.63% # Class of executed instruction. (Count)
system.timingCpu1.exec_context.thread_0.statExecutedInstType::FloatAdd           32      0.00%     82.63% # Class of executed instruction. (Count)
system.timingCpu1.exec_context.thread_0.statExecutedInstType::FloatCmp            0      0.00%     82.63% # Class of executed instruction. (Count)
system.timingCpu1.exec_context.thread_0.statExecutedInstType::FloatCvt           32      0.00%     82.63% # Class of executed instruction. (Count)
system.timingCpu1.exec_context.thread_0.statExecutedInstType::FloatMult            0      0.00%     82.63% # Class of executed instruction. (Count)
system.timingCpu1.exec_context.thread_0.statExecutedInstType::FloatMultAcc            0      0.00%     82.63% # Class of executed instruction. (Count)
system.timingCpu1.exec_context.thread_0.statExecutedInstType::FloatDiv            0      0.00%     82.63% # Class of executed instruction. (Count)
system.timingCpu1.exec_context.thread_0.statExecutedInstType::FloatMisc            0      0.00%     82.63% # Class of executed instruction. (Count)
system.timingCpu1.exec_context.thread_0.statExecutedInstType::FloatSqrt            0      0.00%     82.63% # Class of executed instruction. (Count)
system.timingCpu1.exec_context.thread_0.statExecutedInstType::SimdAdd           28      0.00%     82.63% # Class of executed instruction. (Count)
system.timingCpu1.exec_context.thread_0.statExecutedInstType::SimdAddAcc            0      0.00%     82.63% # Class of executed instruction. (Count)
system.timingCpu1.exec_context.thread_0.statExecutedInstType::SimdAlu          194      0.00%     82.63% # Class of executed instruction. (Count)
system.timingCpu1.exec_context.thread_0.statExecutedInstType::SimdCmp            0      0.00%     82.63% # Class of executed instruction. (Count)
system.timingCpu1.exec_context.thread_0.statExecutedInstType::SimdCvt          140      0.00%     82.63% # Class of executed instruction. (Count)
system.timingCpu1.exec_context.thread_0.statExecutedInstType::SimdMisc          172      0.00%     82.63% # Class of executed instruction. (Count)
system.timingCpu1.exec_context.thread_0.statExecutedInstType::SimdMult            0      0.00%     82.63% # Class of executed instruction. (Count)
system.timingCpu1.exec_context.thread_0.statExecutedInstType::SimdMultAcc            0      0.00%     82.63% # Class of executed instruction. (Count)
system.timingCpu1.exec_context.thread_0.statExecutedInstType::SimdShift           16      0.00%     82.63% # Class of executed instruction. (Count)
system.timingCpu1.exec_context.thread_0.statExecutedInstType::SimdShiftAcc            0      0.00%     82.63% # Class of executed instruction. (Count)
system.timingCpu1.exec_context.thread_0.statExecutedInstType::SimdDiv            0      0.00%     82.63% # Class of executed instruction. (Count)
system.timingCpu1.exec_context.thread_0.statExecutedInstType::SimdSqrt            0      0.00%     82.63% # Class of executed instruction. (Count)
system.timingCpu1.exec_context.thread_0.statExecutedInstType::SimdFloatAdd            0      0.00%     82.63% # Class of executed instruction. (Count)
system.timingCpu1.exec_context.thread_0.statExecutedInstType::SimdFloatAlu            0      0.00%     82.63% # Class of executed instruction. (Count)
system.timingCpu1.exec_context.thread_0.statExecutedInstType::SimdFloatCmp            0      0.00%     82.63% # Class of executed instruction. (Count)
system.timingCpu1.exec_context.thread_0.statExecutedInstType::SimdFloatCvt            0      0.00%     82.63% # Class of executed instruction. (Count)
system.timingCpu1.exec_context.thread_0.statExecutedInstType::SimdFloatDiv            0      0.00%     82.63% # Class of executed instruction. (Count)
system.timingCpu1.exec_context.thread_0.statExecutedInstType::SimdFloatMisc            0      0.00%     82.63% # Class of executed instruction. (Count)
system.timingCpu1.exec_context.thread_0.statExecutedInstType::SimdFloatMult            0      0.00%     82.63% # Class of executed instruction. (Count)
system.timingCpu1.exec_context.thread_0.statExecutedInstType::SimdFloatMultAcc            0      0.00%     82.63% # Class of executed instruction. (Count)
system.timingCpu1.exec_context.thread_0.statExecutedInstType::SimdFloatSqrt            0      0.00%     82.63% # Class of executed instruction. (Count)
system.timingCpu1.exec_context.thread_0.statExecutedInstType::SimdReduceAdd            0      0.00%     82.63% # Class of executed instruction. (Count)
system.timingCpu1.exec_context.thread_0.statExecutedInstType::SimdReduceAlu            0      0.00%     82.63% # Class of executed instruction. (Count)
system.timingCpu1.exec_context.thread_0.statExecutedInstType::SimdReduceCmp            0      0.00%     82.63% # Class of executed instruction. (Count)
system.timingCpu1.exec_context.thread_0.statExecutedInstType::SimdFloatReduceAdd            0      0.00%     82.63% # Class of executed instruction. (Count)
system.timingCpu1.exec_context.thread_0.statExecutedInstType::SimdFloatReduceCmp            0      0.00%     82.63% # Class of executed instruction. (Count)
system.timingCpu1.exec_context.thread_0.statExecutedInstType::SimdAes            0      0.00%     82.63% # Class of executed instruction. (Count)
system.timingCpu1.exec_context.thread_0.statExecutedInstType::SimdAesMix            0      0.00%     82.63% # Class of executed instruction. (Count)
system.timingCpu1.exec_context.thread_0.statExecutedInstType::SimdSha1Hash            0      0.00%     82.63% # Class of executed instruction. (Count)
system.timingCpu1.exec_context.thread_0.statExecutedInstType::SimdSha1Hash2            0      0.00%     82.63% # Class of executed instruction. (Count)
system.timingCpu1.exec_context.thread_0.statExecutedInstType::SimdSha256Hash            0      0.00%     82.63% # Class of executed instruction. (Count)
system.timingCpu1.exec_context.thread_0.statExecutedInstType::SimdSha256Hash2            0      0.00%     82.63% # Class of executed instruction. (Count)
system.timingCpu1.exec_context.thread_0.statExecutedInstType::SimdShaSigma2            0      0.00%     82.63% # Class of executed instruction. (Count)
system.timingCpu1.exec_context.thread_0.statExecutedInstType::SimdShaSigma3            0      0.00%     82.63% # Class of executed instruction. (Count)
system.timingCpu1.exec_context.thread_0.statExecutedInstType::SimdPredAlu            0      0.00%     82.63% # Class of executed instruction. (Count)
system.timingCpu1.exec_context.thread_0.statExecutedInstType::MemRead     16243195     16.41%     99.05% # Class of executed instruction. (Count)
system.timingCpu1.exec_context.thread_0.statExecutedInstType::MemWrite       942471      0.95%    100.00% # Class of executed instruction. (Count)
system.timingCpu1.exec_context.thread_0.statExecutedInstType::FloatMemRead          190      0.00%    100.00% # Class of executed instruction. (Count)
system.timingCpu1.exec_context.thread_0.statExecutedInstType::FloatMemWrite           98      0.00%    100.00% # Class of executed instruction. (Count)
system.timingCpu1.exec_context.thread_0.statExecutedInstType::IprAccess            0      0.00%    100.00% # Class of executed instruction. (Count)
system.timingCpu1.exec_context.thread_0.statExecutedInstType::InstPrefetch            0      0.00%    100.00% # Class of executed instruction. (Count)
system.timingCpu1.exec_context.thread_0.statExecutedInstType::total     98962945                       # Class of executed instruction. (Count)
system.timingCpu1.mmu.dtb.rdAccesses         16682198                       # TLB accesses on read requests (Count)
system.timingCpu1.mmu.dtb.wrAccesses           942692                       # TLB accesses on write requests (Count)
system.timingCpu1.mmu.dtb.rdMisses             439714                       # TLB misses on read requests (Count)
system.timingCpu1.mmu.dtb.wrMisses                431                       # TLB misses on write requests (Count)
system.timingCpu1.mmu.dtb.walker.power_state.pwrStateResidencyTicks::UNDEFINED 150532299822001                       # Cumulative time (in ticks) in various power states (Tick)
system.timingCpu1.mmu.itb.rdAccesses                0                       # TLB accesses on read requests (Count)
system.timingCpu1.mmu.itb.wrAccesses         79067625                       # TLB accesses on write requests (Count)
system.timingCpu1.mmu.itb.rdMisses                  0                       # TLB misses on read requests (Count)
system.timingCpu1.mmu.itb.wrMisses                629                       # TLB misses on write requests (Count)
system.timingCpu1.mmu.itb.walker.power_state.pwrStateResidencyTicks::UNDEFINED 150532299822001                       # Cumulative time (in ticks) in various power states (Tick)
system.timingCpu1.power_state.pwrStateResidencyTicks::OFF 150532299822001                       # Cumulative time (in ticks) in various power states (Tick)
system.timingCpu1.thread_0.numInsts                 0                       # Number of Instructions committed (Count)
system.timingCpu1.thread_0.numOps                   0                       # Number of Ops committed (Count)
system.timingCpu1.thread_0.numMemRefs               0                       # Number of Memory References (Count)
system.workload.inst.arm                            0                       # number of arm instructions executed (Count)
system.workload.inst.quiesce                        0                       # number of quiesce instructions executed (Count)

---------- End Simulation Statistics   ----------
