
---------- Begin Simulation Statistics ----------
simSeconds                                   0.095870                       # Number of seconds simulated (Second)
simTicks                                  95869690751                       # Number of ticks simulated (Tick)
finalTick                                154135375655751                       # Number of ticks from beginning of simulation (restored from checkpoints and never reset) (Tick)
simFreq                                  1000000000000                       # The number of ticks per simulated second ((Tick/Second))
hostSeconds                                    343.75                       # Real time elapsed on the host (Second)
hostTickRate                                278895628                       # The number of ticks simulated per host second (ticks/s) ((Tick/Second))
hostMemory                                    7361392                       # Number of bytes of host memory used (Byte)
simInsts                                  38376273341                       # Number of instructions simulated (Count)
simOps                                    38434973161                       # Number of ops (including micro ops) simulated (Count)
hostInstRate                                111640822                       # Simulator instruction rate (inst/s) ((Count/Second))
hostOpRate                                  111811583                       # Simulator op (including micro ops) rate (op/s) ((Count/Second))
system.work_item_type0::samples                     1                       # Run time stat forwork_item_type0 (Unspecified)
system.work_item_type0::mean              95869690751                       # Run time stat forwork_item_type0 (Unspecified)
system.work_item_type0::gmean            95869690751.000031                       # Run time stat forwork_item_type0 (Unspecified)
system.work_item_type0::stdev                     nan                       # Run time stat forwork_item_type0 (Unspecified)
system.work_item_type0::0-8.58993e+09               0      0.00%      0.00% # Run time stat forwork_item_type0 (Unspecified)
system.work_item_type0::8.58993e+09-1.71799e+10            0      0.00%      0.00% # Run time stat forwork_item_type0 (Unspecified)
system.work_item_type0::1.71799e+10-2.57698e+10            0      0.00%      0.00% # Run time stat forwork_item_type0 (Unspecified)
system.work_item_type0::2.57698e+10-3.43597e+10            0      0.00%      0.00% # Run time stat forwork_item_type0 (Unspecified)
system.work_item_type0::3.43597e+10-4.29497e+10            0      0.00%      0.00% # Run time stat forwork_item_type0 (Unspecified)
system.work_item_type0::4.29497e+10-5.15396e+10            0      0.00%      0.00% # Run time stat forwork_item_type0 (Unspecified)
system.work_item_type0::5.15396e+10-6.01295e+10            0      0.00%      0.00% # Run time stat forwork_item_type0 (Unspecified)
system.work_item_type0::6.01295e+10-6.87195e+10            0      0.00%      0.00% # Run time stat forwork_item_type0 (Unspecified)
system.work_item_type0::6.87195e+10-7.73094e+10            0      0.00%      0.00% # Run time stat forwork_item_type0 (Unspecified)
system.work_item_type0::7.73094e+10-8.58993e+10            0      0.00%      0.00% # Run time stat forwork_item_type0 (Unspecified)
system.work_item_type0::8.58993e+10-9.44893e+10            0      0.00%      0.00% # Run time stat forwork_item_type0 (Unspecified)
system.work_item_type0::9.44893e+10-1.03079e+11            1    100.00%    100.00% # Run time stat forwork_item_type0 (Unspecified)
system.work_item_type0::1.03079e+11-1.11669e+11            0      0.00%    100.00% # Run time stat forwork_item_type0 (Unspecified)
system.work_item_type0::1.11669e+11-1.20259e+11            0      0.00%    100.00% # Run time stat forwork_item_type0 (Unspecified)
system.work_item_type0::1.20259e+11-1.28849e+11            0      0.00%    100.00% # Run time stat forwork_item_type0 (Unspecified)
system.work_item_type0::1.28849e+11-1.37439e+11            0      0.00%    100.00% # Run time stat forwork_item_type0 (Unspecified)
system.work_item_type0::1.37439e+11-1.46029e+11            0      0.00%    100.00% # Run time stat forwork_item_type0 (Unspecified)
system.work_item_type0::1.46029e+11-1.54619e+11            0      0.00%    100.00% # Run time stat forwork_item_type0 (Unspecified)
system.work_item_type0::1.54619e+11-1.63209e+11            0      0.00%    100.00% # Run time stat forwork_item_type0 (Unspecified)
system.work_item_type0::1.63209e+11-1.71799e+11            0      0.00%    100.00% # Run time stat forwork_item_type0 (Unspecified)
system.work_item_type0::total                       1                       # Run time stat forwork_item_type0 (Unspecified)
system.atomicCpu0.numCycles                         0                       # Number of cpu cycles simulated (Cycle)
system.atomicCpu0.numWorkItemsStarted               0                       # Number of work items this cpu started (Count)
system.atomicCpu0.numWorkItemsCompleted             0                       # Number of work items this cpu completed (Count)
system.atomicCpu0.exec_context.thread_0.numInsts            0                       # Number of instructions committed (Count)
system.atomicCpu0.exec_context.thread_0.numOps            0                       # Number of ops (including micro ops) committed (Count)
system.atomicCpu0.exec_context.thread_0.numIntAluAccesses            0                       # Number of integer alu accesses (Count)
system.atomicCpu0.exec_context.thread_0.numFpAluAccesses            0                       # Number of float alu accesses (Count)
system.atomicCpu0.exec_context.thread_0.numVecAluAccesses            0                       # Number of vector alu accesses (Count)
system.atomicCpu0.exec_context.thread_0.numCallsReturns            0                       # Number of times a function call or return occured (Count)
system.atomicCpu0.exec_context.thread_0.numCondCtrlInsts            0                       # Number of instructions that are conditional controls (Count)
system.atomicCpu0.exec_context.thread_0.numIntInsts            0                       # Number of integer instructions (Count)
system.atomicCpu0.exec_context.thread_0.numFpInsts            0                       # Number of float instructions (Count)
system.atomicCpu0.exec_context.thread_0.numVecInsts            0                       # Number of vector instructions (Count)
system.atomicCpu0.exec_context.thread_0.numIntRegReads            0                       # Number of times the integer registers were read (Count)
system.atomicCpu0.exec_context.thread_0.numIntRegWrites            0                       # Number of times the integer registers were written (Count)
system.atomicCpu0.exec_context.thread_0.numFpRegReads            0                       # Number of times the floating registers were read (Count)
system.atomicCpu0.exec_context.thread_0.numFpRegWrites            0                       # Number of times the floating registers were written (Count)
system.atomicCpu0.exec_context.thread_0.numVecRegReads            0                       # Number of times the vector registers were read (Count)
system.atomicCpu0.exec_context.thread_0.numVecRegWrites            0                       # Number of times the vector registers were written (Count)
system.atomicCpu0.exec_context.thread_0.numVecPredRegReads            0                       # Number of times the predicate registers were read (Count)
system.atomicCpu0.exec_context.thread_0.numVecPredRegWrites            0                       # Number of times the predicate registers were written (Count)
system.atomicCpu0.exec_context.thread_0.numMiscRegReads            0                       # Number of times the Misc registers were read (Count)
system.atomicCpu0.exec_context.thread_0.numMiscRegWrites            0                       # Number of times the Misc registers were written (Count)
system.atomicCpu0.exec_context.thread_0.numMemRefs            0                       # Number of memory refs (Count)
system.atomicCpu0.exec_context.thread_0.numLoadInsts            0                       # Number of load instructions (Count)
system.atomicCpu0.exec_context.thread_0.numStoreInsts            0                       # Number of store instructions (Count)
system.atomicCpu0.exec_context.thread_0.numIdleCycles            0                       # Number of idle cycles (Cycle)
system.atomicCpu0.exec_context.thread_0.numBusyCycles            0                       # Number of busy cycles (Cycle)
system.atomicCpu0.exec_context.thread_0.notIdleFraction            0                       # Percentage of non-idle cycles (Ratio)
system.atomicCpu0.exec_context.thread_0.idleFraction            1                       # Percentage of idle cycles (Ratio)
system.atomicCpu0.exec_context.thread_0.statExecutedInstType::No_OpClass            0                       # Class of executed instruction. (Count)
system.atomicCpu0.exec_context.thread_0.statExecutedInstType::IntAlu            0                       # Class of executed instruction. (Count)
system.atomicCpu0.exec_context.thread_0.statExecutedInstType::IntMult            0                       # Class of executed instruction. (Count)
system.atomicCpu0.exec_context.thread_0.statExecutedInstType::IntDiv            0                       # Class of executed instruction. (Count)
system.atomicCpu0.exec_context.thread_0.statExecutedInstType::FloatAdd            0                       # Class of executed instruction. (Count)
system.atomicCpu0.exec_context.thread_0.statExecutedInstType::FloatCmp            0                       # Class of executed instruction. (Count)
system.atomicCpu0.exec_context.thread_0.statExecutedInstType::FloatCvt            0                       # Class of executed instruction. (Count)
system.atomicCpu0.exec_context.thread_0.statExecutedInstType::FloatMult            0                       # Class of executed instruction. (Count)
system.atomicCpu0.exec_context.thread_0.statExecutedInstType::FloatMultAcc            0                       # Class of executed instruction. (Count)
system.atomicCpu0.exec_context.thread_0.statExecutedInstType::FloatDiv            0                       # Class of executed instruction. (Count)
system.atomicCpu0.exec_context.thread_0.statExecutedInstType::FloatMisc            0                       # Class of executed instruction. (Count)
system.atomicCpu0.exec_context.thread_0.statExecutedInstType::FloatSqrt            0                       # Class of executed instruction. (Count)
system.atomicCpu0.exec_context.thread_0.statExecutedInstType::SimdAdd            0                       # Class of executed instruction. (Count)
system.atomicCpu0.exec_context.thread_0.statExecutedInstType::SimdAddAcc            0                       # Class of executed instruction. (Count)
system.atomicCpu0.exec_context.thread_0.statExecutedInstType::SimdAlu            0                       # Class of executed instruction. (Count)
system.atomicCpu0.exec_context.thread_0.statExecutedInstType::SimdCmp            0                       # Class of executed instruction. (Count)
system.atomicCpu0.exec_context.thread_0.statExecutedInstType::SimdCvt            0                       # Class of executed instruction. (Count)
system.atomicCpu0.exec_context.thread_0.statExecutedInstType::SimdMisc            0                       # Class of executed instruction. (Count)
system.atomicCpu0.exec_context.thread_0.statExecutedInstType::SimdMult            0                       # Class of executed instruction. (Count)
system.atomicCpu0.exec_context.thread_0.statExecutedInstType::SimdMultAcc            0                       # Class of executed instruction. (Count)
system.atomicCpu0.exec_context.thread_0.statExecutedInstType::SimdShift            0                       # Class of executed instruction. (Count)
system.atomicCpu0.exec_context.thread_0.statExecutedInstType::SimdShiftAcc            0                       # Class of executed instruction. (Count)
system.atomicCpu0.exec_context.thread_0.statExecutedInstType::SimdDiv            0                       # Class of executed instruction. (Count)
system.atomicCpu0.exec_context.thread_0.statExecutedInstType::SimdSqrt            0                       # Class of executed instruction. (Count)
system.atomicCpu0.exec_context.thread_0.statExecutedInstType::SimdFloatAdd            0                       # Class of executed instruction. (Count)
system.atomicCpu0.exec_context.thread_0.statExecutedInstType::SimdFloatAlu            0                       # Class of executed instruction. (Count)
system.atomicCpu0.exec_context.thread_0.statExecutedInstType::SimdFloatCmp            0                       # Class of executed instruction. (Count)
system.atomicCpu0.exec_context.thread_0.statExecutedInstType::SimdFloatCvt            0                       # Class of executed instruction. (Count)
system.atomicCpu0.exec_context.thread_0.statExecutedInstType::SimdFloatDiv            0                       # Class of executed instruction. (Count)
system.atomicCpu0.exec_context.thread_0.statExecutedInstType::SimdFloatMisc            0                       # Class of executed instruction. (Count)
system.atomicCpu0.exec_context.thread_0.statExecutedInstType::SimdFloatMult            0                       # Class of executed instruction. (Count)
system.atomicCpu0.exec_context.thread_0.statExecutedInstType::SimdFloatMultAcc            0                       # Class of executed instruction. (Count)
system.atomicCpu0.exec_context.thread_0.statExecutedInstType::SimdFloatSqrt            0                       # Class of executed instruction. (Count)
system.atomicCpu0.exec_context.thread_0.statExecutedInstType::SimdReduceAdd            0                       # Class of executed instruction. (Count)
system.atomicCpu0.exec_context.thread_0.statExecutedInstType::SimdReduceAlu            0                       # Class of executed instruction. (Count)
system.atomicCpu0.exec_context.thread_0.statExecutedInstType::SimdReduceCmp            0                       # Class of executed instruction. (Count)
system.atomicCpu0.exec_context.thread_0.statExecutedInstType::SimdFloatReduceAdd            0                       # Class of executed instruction. (Count)
system.atomicCpu0.exec_context.thread_0.statExecutedInstType::SimdFloatReduceCmp            0                       # Class of executed instruction. (Count)
system.atomicCpu0.exec_context.thread_0.statExecutedInstType::SimdAes            0                       # Class of executed instruction. (Count)
system.atomicCpu0.exec_context.thread_0.statExecutedInstType::SimdAesMix            0                       # Class of executed instruction. (Count)
system.atomicCpu0.exec_context.thread_0.statExecutedInstType::SimdSha1Hash            0                       # Class of executed instruction. (Count)
system.atomicCpu0.exec_context.thread_0.statExecutedInstType::SimdSha1Hash2            0                       # Class of executed instruction. (Count)
system.atomicCpu0.exec_context.thread_0.statExecutedInstType::SimdSha256Hash            0                       # Class of executed instruction. (Count)
system.atomicCpu0.exec_context.thread_0.statExecutedInstType::SimdSha256Hash2            0                       # Class of executed instruction. (Count)
system.atomicCpu0.exec_context.thread_0.statExecutedInstType::SimdShaSigma2            0                       # Class of executed instruction. (Count)
system.atomicCpu0.exec_context.thread_0.statExecutedInstType::SimdShaSigma3            0                       # Class of executed instruction. (Count)
system.atomicCpu0.exec_context.thread_0.statExecutedInstType::SimdPredAlu            0                       # Class of executed instruction. (Count)
system.atomicCpu0.exec_context.thread_0.statExecutedInstType::MemRead            0                       # Class of executed instruction. (Count)
system.atomicCpu0.exec_context.thread_0.statExecutedInstType::MemWrite            0                       # Class of executed instruction. (Count)
system.atomicCpu0.exec_context.thread_0.statExecutedInstType::FloatMemRead            0                       # Class of executed instruction. (Count)
system.atomicCpu0.exec_context.thread_0.statExecutedInstType::FloatMemWrite            0                       # Class of executed instruction. (Count)
system.atomicCpu0.exec_context.thread_0.statExecutedInstType::IprAccess            0                       # Class of executed instruction. (Count)
system.atomicCpu0.exec_context.thread_0.statExecutedInstType::InstPrefetch            0                       # Class of executed instruction. (Count)
system.atomicCpu0.exec_context.thread_0.statExecutedInstType::total            0                       # Class of executed instruction. (Count)
system.atomicCpu0.mmu.dtb.rdAccesses                0                       # TLB accesses on read requests (Count)
system.atomicCpu0.mmu.dtb.wrAccesses                0                       # TLB accesses on write requests (Count)
system.atomicCpu0.mmu.dtb.rdMisses                  0                       # TLB misses on read requests (Count)
system.atomicCpu0.mmu.dtb.wrMisses                  0                       # TLB misses on write requests (Count)
system.atomicCpu0.mmu.dtb.walker.power_state.pwrStateResidencyTicks::UNDEFINED 154135375655751                       # Cumulative time (in ticks) in various power states (Tick)
system.atomicCpu0.mmu.itb.rdAccesses                0                       # TLB accesses on read requests (Count)
system.atomicCpu0.mmu.itb.wrAccesses                0                       # TLB accesses on write requests (Count)
system.atomicCpu0.mmu.itb.rdMisses                  0                       # TLB misses on read requests (Count)
system.atomicCpu0.mmu.itb.wrMisses                  0                       # TLB misses on write requests (Count)
system.atomicCpu0.mmu.itb.walker.power_state.pwrStateResidencyTicks::UNDEFINED 154135375655751                       # Cumulative time (in ticks) in various power states (Tick)
system.atomicCpu0.power_state.pwrStateResidencyTicks::OFF 154135375655751                       # Cumulative time (in ticks) in various power states (Tick)
system.atomicCpu0.thread_0.numInsts                 0                       # Number of Instructions committed (Count)
system.atomicCpu0.thread_0.numOps                   0                       # Number of Ops committed (Count)
system.atomicCpu0.thread_0.numMemRefs               0                       # Number of Memory References (Count)
system.atomicCpu1.numCycles                         0                       # Number of cpu cycles simulated (Cycle)
system.atomicCpu1.numWorkItemsStarted               0                       # Number of work items this cpu started (Count)
system.atomicCpu1.numWorkItemsCompleted             0                       # Number of work items this cpu completed (Count)
system.atomicCpu1.exec_context.thread_0.numInsts            0                       # Number of instructions committed (Count)
system.atomicCpu1.exec_context.thread_0.numOps            0                       # Number of ops (including micro ops) committed (Count)
system.atomicCpu1.exec_context.thread_0.numIntAluAccesses            0                       # Number of integer alu accesses (Count)
system.atomicCpu1.exec_context.thread_0.numFpAluAccesses            0                       # Number of float alu accesses (Count)
system.atomicCpu1.exec_context.thread_0.numVecAluAccesses            0                       # Number of vector alu accesses (Count)
system.atomicCpu1.exec_context.thread_0.numCallsReturns            0                       # Number of times a function call or return occured (Count)
system.atomicCpu1.exec_context.thread_0.numCondCtrlInsts            0                       # Number of instructions that are conditional controls (Count)
system.atomicCpu1.exec_context.thread_0.numIntInsts            0                       # Number of integer instructions (Count)
system.atomicCpu1.exec_context.thread_0.numFpInsts            0                       # Number of float instructions (Count)
system.atomicCpu1.exec_context.thread_0.numVecInsts            0                       # Number of vector instructions (Count)
system.atomicCpu1.exec_context.thread_0.numIntRegReads            0                       # Number of times the integer registers were read (Count)
system.atomicCpu1.exec_context.thread_0.numIntRegWrites            0                       # Number of times the integer registers were written (Count)
system.atomicCpu1.exec_context.thread_0.numFpRegReads            0                       # Number of times the floating registers were read (Count)
system.atomicCpu1.exec_context.thread_0.numFpRegWrites            0                       # Number of times the floating registers were written (Count)
system.atomicCpu1.exec_context.thread_0.numVecRegReads            0                       # Number of times the vector registers were read (Count)
system.atomicCpu1.exec_context.thread_0.numVecRegWrites            0                       # Number of times the vector registers were written (Count)
system.atomicCpu1.exec_context.thread_0.numVecPredRegReads            0                       # Number of times the predicate registers were read (Count)
system.atomicCpu1.exec_context.thread_0.numVecPredRegWrites            0                       # Number of times the predicate registers were written (Count)
system.atomicCpu1.exec_context.thread_0.numMiscRegReads            0                       # Number of times the Misc registers were read (Count)
system.atomicCpu1.exec_context.thread_0.numMiscRegWrites            0                       # Number of times the Misc registers were written (Count)
system.atomicCpu1.exec_context.thread_0.numMemRefs            0                       # Number of memory refs (Count)
system.atomicCpu1.exec_context.thread_0.numLoadInsts            0                       # Number of load instructions (Count)
system.atomicCpu1.exec_context.thread_0.numStoreInsts            0                       # Number of store instructions (Count)
system.atomicCpu1.exec_context.thread_0.numIdleCycles            0                       # Number of idle cycles (Cycle)
system.atomicCpu1.exec_context.thread_0.numBusyCycles            0                       # Number of busy cycles (Cycle)
system.atomicCpu1.exec_context.thread_0.notIdleFraction            0                       # Percentage of non-idle cycles (Ratio)
system.atomicCpu1.exec_context.thread_0.idleFraction            1                       # Percentage of idle cycles (Ratio)
system.atomicCpu1.exec_context.thread_0.statExecutedInstType::No_OpClass            0                       # Class of executed instruction. (Count)
system.atomicCpu1.exec_context.thread_0.statExecutedInstType::IntAlu            0                       # Class of executed instruction. (Count)
system.atomicCpu1.exec_context.thread_0.statExecutedInstType::IntMult            0                       # Class of executed instruction. (Count)
system.atomicCpu1.exec_context.thread_0.statExecutedInstType::IntDiv            0                       # Class of executed instruction. (Count)
system.atomicCpu1.exec_context.thread_0.statExecutedInstType::FloatAdd            0                       # Class of executed instruction. (Count)
system.atomicCpu1.exec_context.thread_0.statExecutedInstType::FloatCmp            0                       # Class of executed instruction. (Count)
system.atomicCpu1.exec_context.thread_0.statExecutedInstType::FloatCvt            0                       # Class of executed instruction. (Count)
system.atomicCpu1.exec_context.thread_0.statExecutedInstType::FloatMult            0                       # Class of executed instruction. (Count)
system.atomicCpu1.exec_context.thread_0.statExecutedInstType::FloatMultAcc            0                       # Class of executed instruction. (Count)
system.atomicCpu1.exec_context.thread_0.statExecutedInstType::FloatDiv            0                       # Class of executed instruction. (Count)
system.atomicCpu1.exec_context.thread_0.statExecutedInstType::FloatMisc            0                       # Class of executed instruction. (Count)
system.atomicCpu1.exec_context.thread_0.statExecutedInstType::FloatSqrt            0                       # Class of executed instruction. (Count)
system.atomicCpu1.exec_context.thread_0.statExecutedInstType::SimdAdd            0                       # Class of executed instruction. (Count)
system.atomicCpu1.exec_context.thread_0.statExecutedInstType::SimdAddAcc            0                       # Class of executed instruction. (Count)
system.atomicCpu1.exec_context.thread_0.statExecutedInstType::SimdAlu            0                       # Class of executed instruction. (Count)
system.atomicCpu1.exec_context.thread_0.statExecutedInstType::SimdCmp            0                       # Class of executed instruction. (Count)
system.atomicCpu1.exec_context.thread_0.statExecutedInstType::SimdCvt            0                       # Class of executed instruction. (Count)
system.atomicCpu1.exec_context.thread_0.statExecutedInstType::SimdMisc            0                       # Class of executed instruction. (Count)
system.atomicCpu1.exec_context.thread_0.statExecutedInstType::SimdMult            0                       # Class of executed instruction. (Count)
system.atomicCpu1.exec_context.thread_0.statExecutedInstType::SimdMultAcc            0                       # Class of executed instruction. (Count)
system.atomicCpu1.exec_context.thread_0.statExecutedInstType::SimdShift            0                       # Class of executed instruction. (Count)
system.atomicCpu1.exec_context.thread_0.statExecutedInstType::SimdShiftAcc            0                       # Class of executed instruction. (Count)
system.atomicCpu1.exec_context.thread_0.statExecutedInstType::SimdDiv            0                       # Class of executed instruction. (Count)
system.atomicCpu1.exec_context.thread_0.statExecutedInstType::SimdSqrt            0                       # Class of executed instruction. (Count)
system.atomicCpu1.exec_context.thread_0.statExecutedInstType::SimdFloatAdd            0                       # Class of executed instruction. (Count)
system.atomicCpu1.exec_context.thread_0.statExecutedInstType::SimdFloatAlu            0                       # Class of executed instruction. (Count)
system.atomicCpu1.exec_context.thread_0.statExecutedInstType::SimdFloatCmp            0                       # Class of executed instruction. (Count)
system.atomicCpu1.exec_context.thread_0.statExecutedInstType::SimdFloatCvt            0                       # Class of executed instruction. (Count)
system.atomicCpu1.exec_context.thread_0.statExecutedInstType::SimdFloatDiv            0                       # Class of executed instruction. (Count)
system.atomicCpu1.exec_context.thread_0.statExecutedInstType::SimdFloatMisc            0                       # Class of executed instruction. (Count)
system.atomicCpu1.exec_context.thread_0.statExecutedInstType::SimdFloatMult            0                       # Class of executed instruction. (Count)
system.atomicCpu1.exec_context.thread_0.statExecutedInstType::SimdFloatMultAcc            0                       # Class of executed instruction. (Count)
system.atomicCpu1.exec_context.thread_0.statExecutedInstType::SimdFloatSqrt            0                       # Class of executed instruction. (Count)
system.atomicCpu1.exec_context.thread_0.statExecutedInstType::SimdReduceAdd            0                       # Class of executed instruction. (Count)
system.atomicCpu1.exec_context.thread_0.statExecutedInstType::SimdReduceAlu            0                       # Class of executed instruction. (Count)
system.atomicCpu1.exec_context.thread_0.statExecutedInstType::SimdReduceCmp            0                       # Class of executed instruction. (Count)
system.atomicCpu1.exec_context.thread_0.statExecutedInstType::SimdFloatReduceAdd            0                       # Class of executed instruction. (Count)
system.atomicCpu1.exec_context.thread_0.statExecutedInstType::SimdFloatReduceCmp            0                       # Class of executed instruction. (Count)
system.atomicCpu1.exec_context.thread_0.statExecutedInstType::SimdAes            0                       # Class of executed instruction. (Count)
system.atomicCpu1.exec_context.thread_0.statExecutedInstType::SimdAesMix            0                       # Class of executed instruction. (Count)
system.atomicCpu1.exec_context.thread_0.statExecutedInstType::SimdSha1Hash            0                       # Class of executed instruction. (Count)
system.atomicCpu1.exec_context.thread_0.statExecutedInstType::SimdSha1Hash2            0                       # Class of executed instruction. (Count)
system.atomicCpu1.exec_context.thread_0.statExecutedInstType::SimdSha256Hash            0                       # Class of executed instruction. (Count)
system.atomicCpu1.exec_context.thread_0.statExecutedInstType::SimdSha256Hash2            0                       # Class of executed instruction. (Count)
system.atomicCpu1.exec_context.thread_0.statExecutedInstType::SimdShaSigma2            0                       # Class of executed instruction. (Count)
system.atomicCpu1.exec_context.thread_0.statExecutedInstType::SimdShaSigma3            0                       # Class of executed instruction. (Count)
system.atomicCpu1.exec_context.thread_0.statExecutedInstType::SimdPredAlu            0                       # Class of executed instruction. (Count)
system.atomicCpu1.exec_context.thread_0.statExecutedInstType::MemRead            0                       # Class of executed instruction. (Count)
system.atomicCpu1.exec_context.thread_0.statExecutedInstType::MemWrite            0                       # Class of executed instruction. (Count)
system.atomicCpu1.exec_context.thread_0.statExecutedInstType::FloatMemRead            0                       # Class of executed instruction. (Count)
system.atomicCpu1.exec_context.thread_0.statExecutedInstType::FloatMemWrite            0                       # Class of executed instruction. (Count)
system.atomicCpu1.exec_context.thread_0.statExecutedInstType::IprAccess            0                       # Class of executed instruction. (Count)
system.atomicCpu1.exec_context.thread_0.statExecutedInstType::InstPrefetch            0                       # Class of executed instruction. (Count)
system.atomicCpu1.exec_context.thread_0.statExecutedInstType::total            0                       # Class of executed instruction. (Count)
system.atomicCpu1.mmu.dtb.rdAccesses                0                       # TLB accesses on read requests (Count)
system.atomicCpu1.mmu.dtb.wrAccesses                0                       # TLB accesses on write requests (Count)
system.atomicCpu1.mmu.dtb.rdMisses                  0                       # TLB misses on read requests (Count)
system.atomicCpu1.mmu.dtb.wrMisses                  0                       # TLB misses on write requests (Count)
system.atomicCpu1.mmu.dtb.walker.power_state.pwrStateResidencyTicks::UNDEFINED 154135375655751                       # Cumulative time (in ticks) in various power states (Tick)
system.atomicCpu1.mmu.itb.rdAccesses                0                       # TLB accesses on read requests (Count)
system.atomicCpu1.mmu.itb.wrAccesses                0                       # TLB accesses on write requests (Count)
system.atomicCpu1.mmu.itb.rdMisses                  0                       # TLB misses on read requests (Count)
system.atomicCpu1.mmu.itb.wrMisses                  0                       # TLB misses on write requests (Count)
system.atomicCpu1.mmu.itb.walker.power_state.pwrStateResidencyTicks::UNDEFINED 154135375655751                       # Cumulative time (in ticks) in various power states (Tick)
system.atomicCpu1.power_state.pwrStateResidencyTicks::OFF 154135375655751                       # Cumulative time (in ticks) in various power states (Tick)
system.atomicCpu1.thread_0.numInsts                 0                       # Number of Instructions committed (Count)
system.atomicCpu1.thread_0.numOps                   0                       # Number of Ops committed (Count)
system.atomicCpu1.thread_0.numMemRefs               0                       # Number of Memory References (Count)
system.caches.delayHistogram::bucket_size           64                       # delay histogram for all message (Unspecified)
system.caches.delayHistogram::max_bucket          639                       # delay histogram for all message (Unspecified)
system.caches.delayHistogram::samples         8778614                       # delay histogram for all message (Unspecified)
system.caches.delayHistogram::mean           0.174486                       # delay histogram for all message (Unspecified)
system.caches.delayHistogram::stdev          1.197575                       # delay histogram for all message (Unspecified)
system.caches.delayHistogram             |     8778610    100.00%    100.00% |           0      0.00%    100.00% |           0      0.00%    100.00% |           1      0.00%    100.00% |           0      0.00%    100.00% |           2      0.00%    100.00% |           0      0.00%    100.00% |           0      0.00%    100.00% |           1      0.00%    100.00% |           0      0.00%    100.00% # delay histogram for all message (Unspecified)
system.caches.delayHistogram::total           8778614                       # delay histogram for all message (Unspecified)
system.caches.m_outstandReqHistSeqr::bucket_size            1                       (Unspecified)
system.caches.m_outstandReqHistSeqr::max_bucket            9                       (Unspecified)
system.caches.m_outstandReqHistSeqr::samples    134947371                       (Unspecified)
system.caches.m_outstandReqHistSeqr::mean     1.000005                       (Unspecified)
system.caches.m_outstandReqHistSeqr::gmean     1.000004                       (Unspecified)
system.caches.m_outstandReqHistSeqr::stdev     0.002271                       (Unspecified)
system.caches.m_outstandReqHistSeqr      |           0      0.00%      0.00% |   134946675    100.00%    100.00% |         696      0.00%    100.00% |           0      0.00%    100.00% |           0      0.00%    100.00% |           0      0.00%    100.00% |           0      0.00%    100.00% |           0      0.00%    100.00% |           0      0.00%    100.00% |           0      0.00%    100.00% (Unspecified)
system.caches.m_outstandReqHistSeqr::total    134947371                       (Unspecified)
system.caches.m_latencyHistSeqr::bucket_size          512                       (Unspecified)
system.caches.m_latencyHistSeqr::max_bucket         5119                       (Unspecified)
system.caches.m_latencyHistSeqr::samples    134947370                       (Unspecified)
system.caches.m_latencyHistSeqr::mean        4.658315                       (Unspecified)
system.caches.m_latencyHistSeqr::gmean       1.057281                       (Unspecified)
system.caches.m_latencyHistSeqr::stdev      44.124156                       (Unspecified)
system.caches.m_latencyHistSeqr          |   134754147     99.86%     99.86% |      170298      0.13%     99.98% |        5299      0.00%     99.99% |       16615      0.01%    100.00% |         975      0.00%    100.00% |          36      0.00%    100.00% |           0      0.00%    100.00% |           0      0.00%    100.00% |           0      0.00%    100.00% |           0      0.00%    100.00% (Unspecified)
system.caches.m_latencyHistSeqr::total      134947370                       (Unspecified)
system.caches.m_hitLatencyHistSeqr::bucket_size            1                       (Unspecified)
system.caches.m_hitLatencyHistSeqr::max_bucket            9                       (Unspecified)
system.caches.m_hitLatencyHistSeqr::samples    133575688                       (Unspecified)
system.caches.m_hitLatencyHistSeqr::mean            1                       (Unspecified)
system.caches.m_hitLatencyHistSeqr::gmean            1                       (Unspecified)
system.caches.m_hitLatencyHistSeqr       |           0      0.00%      0.00% |   133575688    100.00%    100.00% |           0      0.00%    100.00% |           0      0.00%    100.00% |           0      0.00%    100.00% |           0      0.00%    100.00% |           0      0.00%    100.00% |           0      0.00%    100.00% |           0      0.00%    100.00% |           0      0.00%    100.00% (Unspecified)
system.caches.m_hitLatencyHistSeqr::total    133575688                       (Unspecified)
system.caches.m_missLatencyHistSeqr::bucket_size          512                       (Unspecified)
system.caches.m_missLatencyHistSeqr::max_bucket         5119                       (Unspecified)
system.caches.m_missLatencyHistSeqr::samples      1371682                       (Unspecified)
system.caches.m_missLatencyHistSeqr::mean   360.908482                       (Unspecified)
system.caches.m_missLatencyHistSeqr::gmean   239.807618                       (Unspecified)
system.caches.m_missLatencyHistSeqr::stdev   251.643586                       (Unspecified)
system.caches.m_missLatencyHistSeqr      |     1178459     85.91%     85.91% |      170298     12.42%     98.33% |        5299      0.39%     98.72% |       16615      1.21%     99.93% |         975      0.07%    100.00% |          36      0.00%    100.00% |           0      0.00%    100.00% |           0      0.00%    100.00% |           0      0.00%    100.00% |           0      0.00%    100.00% (Unspecified)
system.caches.m_missLatencyHistSeqr::total      1371682                       (Unspecified)
system.caches.delayVCHist.vnet_0::bucket_size           64                       # delay histogram for vnet_0 (Unspecified)
system.caches.delayVCHist.vnet_0::max_bucket          639                       # delay histogram for vnet_0 (Unspecified)
system.caches.delayVCHist.vnet_0::samples      3862053                       # delay histogram for vnet_0 (Unspecified)
system.caches.delayVCHist.vnet_0::mean       0.395555                       # delay histogram for vnet_0 (Unspecified)
system.caches.delayVCHist.vnet_0::stdev      1.779670                       # delay histogram for vnet_0 (Unspecified)
system.caches.delayVCHist.vnet_0         |     3862049    100.00%    100.00% |           0      0.00%    100.00% |           0      0.00%    100.00% |           1      0.00%    100.00% |           0      0.00%    100.00% |           2      0.00%    100.00% |           0      0.00%    100.00% |           0      0.00%    100.00% |           1      0.00%    100.00% |           0      0.00%    100.00% # delay histogram for vnet_0 (Unspecified)
system.caches.delayVCHist.vnet_0::total       3862053                       # delay histogram for vnet_0 (Unspecified)
system.caches.delayVCHist.vnet_1::bucket_size            1                       # delay histogram for vnet_1 (Unspecified)
system.caches.delayVCHist.vnet_1::max_bucket            9                       # delay histogram for vnet_1 (Unspecified)
system.caches.delayVCHist.vnet_1::samples      4821881                       # delay histogram for vnet_1 (Unspecified)
system.caches.delayVCHist.vnet_1::mean       0.000846                       # delay histogram for vnet_1 (Unspecified)
system.caches.delayVCHist.vnet_1::stdev      0.066214                       # delay histogram for vnet_1 (Unspecified)
system.caches.delayVCHist.vnet_1         |     4820939     99.98%     99.98% |           0      0.00%     99.98% |         290      0.01%     99.99% |           0      0.00%     99.99% |         285      0.01%     99.99% |           0      0.00%     99.99% |         288      0.01%    100.00% |           0      0.00%    100.00% |          79      0.00%    100.00% |           0      0.00%    100.00% # delay histogram for vnet_1 (Unspecified)
system.caches.delayVCHist.vnet_1::total       4821881                       # delay histogram for vnet_1 (Unspecified)
system.caches.delayVCHist.vnet_2::bucket_size            1                       # delay histogram for vnet_2 (Unspecified)
system.caches.delayVCHist.vnet_2::max_bucket            9                       # delay histogram for vnet_2 (Unspecified)
system.caches.delayVCHist.vnet_2::samples        94680                       # delay histogram for vnet_2 (Unspecified)
system.caches.delayVCHist.vnet_2::mean       0.000127                       # delay histogram for vnet_2 (Unspecified)
system.caches.delayVCHist.vnet_2::stdev      0.015921                       # delay histogram for vnet_2 (Unspecified)
system.caches.delayVCHist.vnet_2         |       94674     99.99%     99.99% |           0      0.00%     99.99% |           6      0.01%    100.00% |           0      0.00%    100.00% |           0      0.00%    100.00% |           0      0.00%    100.00% |           0      0.00%    100.00% |           0      0.00%    100.00% |           0      0.00%    100.00% |           0      0.00%    100.00% # delay histogram for vnet_2 (Unspecified)
system.caches.delayVCHist.vnet_2::total         94680                       # delay histogram for vnet_2 (Unspecified)
system.caches.L1Cache_Controller.Load    |    10548282     51.27%     51.27% |    10023935     48.73%    100.00% (Unspecified)
system.caches.L1Cache_Controller.Load::total     20572217                       (Unspecified)
system.caches.L1Cache_Controller.Ifetch  |    57623870     52.31%     52.31% |    52526521     47.69%    100.00% (Unspecified)
system.caches.L1Cache_Controller.Ifetch::total    110150391                       (Unspecified)
system.caches.L1Cache_Controller.Store   |     1997623     47.28%     47.28% |     2227139     52.72%    100.00% (Unspecified)
system.caches.L1Cache_Controller.Store::total      4224762                       (Unspecified)
system.caches.L1Cache_Controller.Inv     |       16166     51.12%     51.12% |       15458     48.88%    100.00% (Unspecified)
system.caches.L1Cache_Controller.Inv::total        31624                       (Unspecified)
system.caches.L1Cache_Controller.L1_Replacement |      643686     49.82%     49.82% |      648399     50.18%    100.00% (Unspecified)
system.caches.L1Cache_Controller.L1_Replacement::total      1292085                       (Unspecified)
system.caches.L1Cache_Controller.Fwd_GETX |       24200     49.84%     49.84% |       24351     50.16%    100.00% (Unspecified)
system.caches.L1Cache_Controller.Fwd_GETX::total        48551                       (Unspecified)
system.caches.L1Cache_Controller.Fwd_GETS |        6592     45.45%     45.45% |        7913     54.55%    100.00% (Unspecified)
system.caches.L1Cache_Controller.Fwd_GETS::total        14505                       (Unspecified)
system.caches.L1Cache_Controller.Data    |         107     12.78%     12.78% |         730     87.22%    100.00% (Unspecified)
system.caches.L1Cache_Controller.Data::total          837                       (Unspecified)
system.caches.L1Cache_Controller.Data_Exclusive |      587909     50.16%     50.16% |      584131     49.84%    100.00% (Unspecified)
system.caches.L1Cache_Controller.Data_Exclusive::total      1172040                       (Unspecified)
system.caches.L1Cache_Controller.DataS_fromL1 |        7913     54.55%     54.55% |        6592     45.45%    100.00% (Unspecified)
system.caches.L1Cache_Controller.DataS_fromL1::total        14505                       (Unspecified)
system.caches.L1Cache_Controller.Data_all_Acks |       84072     47.11%     47.11% |       94388     52.89%    100.00% (Unspecified)
system.caches.L1Cache_Controller.Data_all_Acks::total       178460                       (Unspecified)
system.caches.L1Cache_Controller.Ack     |        2093     35.84%     35.84% |        3747     64.16%    100.00% (Unspecified)
system.caches.L1Cache_Controller.Ack::total         5840                       (Unspecified)
system.caches.L1Cache_Controller.Ack_all |        2200     32.95%     32.95% |        4477     67.05%    100.00% (Unspecified)
system.caches.L1Cache_Controller.Ack_all::total         6677                       (Unspecified)
system.caches.L1Cache_Controller.WB_Ack  |      596730     49.90%     49.90% |      599106     50.10%    100.00% (Unspecified)
system.caches.L1Cache_Controller.WB_Ack::total      1195836                       (Unspecified)
system.caches.L1Cache_Controller.NP.Load |      622844     50.26%     50.26% |      616490     49.74%    100.00% (Unspecified)
system.caches.L1Cache_Controller.NP.Load::total      1239334                       (Unspecified)
system.caches.L1Cache_Controller.NP.Ifetch |        4783     32.90%     32.90% |        9757     67.10%    100.00% (Unspecified)
system.caches.L1Cache_Controller.NP.Ifetch::total        14540                       (Unspecified)
system.caches.L1Cache_Controller.NP.Store |       24752     44.51%     44.51% |       30856     55.49%    100.00% (Unspecified)
system.caches.L1Cache_Controller.NP.Store::total        55608                       (Unspecified)
system.caches.L1Cache_Controller.NP.Inv  |        5605     48.10%     48.10% |        6048     51.90%    100.00% (Unspecified)
system.caches.L1Cache_Controller.NP.Inv::total        11653                       (Unspecified)
system.caches.L1Cache_Controller.I.Load  |        2975     41.98%     41.98% |        4112     58.02%    100.00% (Unspecified)
system.caches.L1Cache_Controller.I.Load::total         7087                       (Unspecified)
system.caches.L1Cache_Controller.I.Ifetch |        1391     50.93%     50.93% |        1340     49.07%    100.00% (Unspecified)
system.caches.L1Cache_Controller.I.Ifetch::total         2731                       (Unspecified)
system.caches.L1Cache_Controller.I.Store |       23256     49.97%     49.97% |       23283     50.03%    100.00% (Unspecified)
system.caches.L1Cache_Controller.I.Store::total        46539                       (Unspecified)
system.caches.L1Cache_Controller.I.L1_Replacement |        7040     58.42%     58.42% |        5010     41.58%    100.00% (Unspecified)
system.caches.L1Cache_Controller.I.L1_Replacement::total        12050                       (Unspecified)
system.caches.L1Cache_Controller.S.Load  |     3796130     51.83%     51.83% |     3527943     48.17%    100.00% (Unspecified)
system.caches.L1Cache_Controller.S.Load::total      7324073                       (Unspecified)
system.caches.L1Cache_Controller.S.Ifetch |    57617696     52.32%     52.32% |    52515424     47.68%    100.00% (Unspecified)
system.caches.L1Cache_Controller.S.Ifetch::total    110133120                       (Unspecified)
system.caches.L1Cache_Controller.S.Store |        2093     35.82%     35.82% |        3750     64.18%    100.00% (Unspecified)
system.caches.L1Cache_Controller.S.Store::total         5843                       (Unspecified)
system.caches.L1Cache_Controller.S.Inv   |        8133     54.42%     54.42% |        6813     45.58%    100.00% (Unspecified)
system.caches.L1Cache_Controller.S.Inv::total        14946                       (Unspecified)
system.caches.L1Cache_Controller.S.L1_Replacement |       39916     47.41%     47.41% |       44283     52.59%    100.00% (Unspecified)
system.caches.L1Cache_Controller.S.L1_Replacement::total        84199                       (Unspecified)
system.caches.L1Cache_Controller.E.Load  |     5266493     53.12%     53.12% |     4648340     46.88%    100.00% (Unspecified)
system.caches.L1Cache_Controller.E.Load::total      9914833                       (Unspecified)
system.caches.L1Cache_Controller.E.Store |       71622     52.32%     52.32% |       65276     47.68%    100.00% (Unspecified)
system.caches.L1Cache_Controller.E.Store::total       136898                       (Unspecified)
system.caches.L1Cache_Controller.E.Inv   |        2161     48.79%     48.79% |        2268     51.21%    100.00% (Unspecified)
system.caches.L1Cache_Controller.E.Inv::total         4429                       (Unspecified)
system.caches.L1Cache_Controller.E.L1_Replacement |      501724     49.76%     49.76% |      506547     50.24%    100.00% (Unspecified)
system.caches.L1Cache_Controller.E.L1_Replacement::total      1008271                       (Unspecified)
system.caches.L1Cache_Controller.E.Fwd_GETX |          10     24.39%     24.39% |          31     75.61%    100.00% (Unspecified)
system.caches.L1Cache_Controller.E.Fwd_GETX::total           41                       (Unspecified)
system.caches.L1Cache_Controller.E.Fwd_GETS |        4461     48.10%     48.10% |        4814     51.90%    100.00% (Unspecified)
system.caches.L1Cache_Controller.E.Fwd_GETS::total         9275                       (Unspecified)
system.caches.L1Cache_Controller.M.Load  |      859840     41.20%     41.20% |     1227050     58.80%    100.00% (Unspecified)
system.caches.L1Cache_Controller.M.Load::total      2086890                       (Unspecified)
system.caches.L1Cache_Controller.M.Store |     1875900     47.13%     47.13% |     2103974     52.87%    100.00% (Unspecified)
system.caches.L1Cache_Controller.M.Store::total      3979874                       (Unspecified)
system.caches.L1Cache_Controller.M.Inv   |         267     45.03%     45.03% |         326     54.97%    100.00% (Unspecified)
system.caches.L1Cache_Controller.M.Inv::total          593                       (Unspecified)
system.caches.L1Cache_Controller.M.L1_Replacement |       95006     50.65%     50.65% |       92559     49.35%    100.00% (Unspecified)
system.caches.L1Cache_Controller.M.L1_Replacement::total       187565                       (Unspecified)
system.caches.L1Cache_Controller.M.Fwd_GETX |       24190     49.87%     49.87% |       24320     50.13%    100.00% (Unspecified)
system.caches.L1Cache_Controller.M.Fwd_GETX::total        48510                       (Unspecified)
system.caches.L1Cache_Controller.M.Fwd_GETS |        2131     40.75%     40.75% |        3099     59.25%    100.00% (Unspecified)
system.caches.L1Cache_Controller.M.Fwd_GETS::total         5230                       (Unspecified)
system.caches.L1Cache_Controller.IS.Data_Exclusive |      587909     50.16%     50.16% |      584131     49.84%    100.00% (Unspecified)
system.caches.L1Cache_Controller.IS.Data_Exclusive::total      1172040                       (Unspecified)
system.caches.L1Cache_Controller.IS.DataS_fromL1 |        7913     54.55%     54.55% |        6592     45.45%    100.00% (Unspecified)
system.caches.L1Cache_Controller.IS.DataS_fromL1::total        14505                       (Unspecified)
system.caches.L1Cache_Controller.IS.Data_all_Acks |       36171     46.89%     46.89% |       40976     53.11%    100.00% (Unspecified)
system.caches.L1Cache_Controller.IS.Data_all_Acks::total        77147                       (Unspecified)
system.caches.L1Cache_Controller.IM.Data |         107     12.78%     12.78% |         730     87.22%    100.00% (Unspecified)
system.caches.L1Cache_Controller.IM.Data::total          837                       (Unspecified)
system.caches.L1Cache_Controller.IM.Data_all_Acks |       47901     47.28%     47.28% |       53412     52.72%    100.00% (Unspecified)
system.caches.L1Cache_Controller.IM.Data_all_Acks::total       101313                       (Unspecified)
system.caches.L1Cache_Controller.SM.Inv  |           0      0.00%      0.00% |           3    100.00%    100.00% (Unspecified)
system.caches.L1Cache_Controller.SM.Inv::total            3                       (Unspecified)
system.caches.L1Cache_Controller.SM.Ack  |        2093     35.84%     35.84% |        3747     64.16%    100.00% (Unspecified)
system.caches.L1Cache_Controller.SM.Ack::total         5840                       (Unspecified)
system.caches.L1Cache_Controller.SM.Ack_all |        2200     32.95%     32.95% |        4477     67.05%    100.00% (Unspecified)
system.caches.L1Cache_Controller.SM.Ack_all::total         6677                       (Unspecified)
system.caches.L1Cache_Controller.M_I.WB_Ack |      596730     49.90%     49.90% |      599106     50.10%    100.00% (Unspecified)
system.caches.L1Cache_Controller.M_I.WB_Ack::total      1195836                       (Unspecified)
system.caches.Directory_Controller.Fetch      1169653      0.00%      0.00% (Unspecified)
system.caches.Directory_Controller.Data        173844      0.00%      0.00% (Unspecified)
system.caches.Directory_Controller.Memory_Data      1169653      0.00%      0.00% (Unspecified)
system.caches.Directory_Controller.Memory_Ack       173844      0.00%      0.00% (Unspecified)
system.caches.Directory_Controller.CleanReplacement       864737      0.00%      0.00% (Unspecified)
system.caches.Directory_Controller.I.Fetch      1169653      0.00%      0.00% (Unspecified)
system.caches.Directory_Controller.M.Data       173844      0.00%      0.00% (Unspecified)
system.caches.Directory_Controller.M.CleanReplacement       864737      0.00%      0.00% (Unspecified)
system.caches.Directory_Controller.IM.Memory_Data      1169653      0.00%      0.00% (Unspecified)
system.caches.Directory_Controller.MI.Memory_Ack       173844      0.00%      0.00% (Unspecified)
system.caches.L2Cache_Controller.L1_GET_INSTR |        1878     10.87%     10.87% |        2529     14.64%     25.51% |        2303     13.33%     38.84% |        1674      9.69%     48.54% |        2021     11.70%     60.24% |        2284     13.22%     73.46% |        2305     13.34%     86.80% |        2280     13.20%    100.00% (Unspecified)
system.caches.L2Cache_Controller.L1_GET_INSTR::total        17274                       (Unspecified)
system.caches.L2Cache_Controller.L1_GETS |      156910     12.59%     12.59% |      155742     12.49%     25.08% |      154817     12.42%     37.50% |      154557     12.40%     49.90% |      158744     12.73%     62.63% |      154531     12.40%     75.03% |      155506     12.47%     87.50% |      155830     12.50%    100.00% (Unspecified)
system.caches.L2Cache_Controller.L1_GETS::total      1246637                       (Unspecified)
system.caches.L2Cache_Controller.L1_GETX |       17604     17.17%     17.17% |        9641      9.40%     26.58% |       18626     18.17%     44.74% |        6640      6.48%     51.22% |       17210     16.79%     68.01% |        7022      6.85%     74.86% |       18962     18.50%     93.36% |        6812      6.64%    100.00% (Unspecified)
system.caches.L2Cache_Controller.L1_GETX::total       102517                       (Unspecified)
system.caches.L2Cache_Controller.L1_UPGRADE |         747     12.41%     12.41% |         741     12.31%     24.72% |         669     11.11%     35.84% |         678     11.26%     47.10% |         704     11.70%     58.80% |         668     11.10%     69.90% |        1158     19.24%     89.13% |         654     10.87%    100.00% (Unspecified)
system.caches.L2Cache_Controller.L1_UPGRADE::total         6019                       (Unspecified)
system.caches.L2Cache_Controller.L1_PUTX |      150259     12.57%     12.57% |      150063     12.55%     25.11% |      149023     12.46%     37.58% |      149494     12.50%     50.08% |      147201     12.31%     62.39% |      149835     12.53%     74.92% |      149958     12.54%     87.46% |      150003     12.54%    100.00% (Unspecified)
system.caches.L2Cache_Controller.L1_PUTX::total      1195836                       (Unspecified)
system.caches.L2Cache_Controller.L2_Replacement |       21740     12.54%     12.54% |       21661     12.49%     25.03% |       21687     12.51%     37.53% |       21690     12.51%     50.04% |       21644     12.48%     62.52% |       21674     12.50%     75.02% |       21677     12.50%     87.52% |       21652     12.48%    100.00% (Unspecified)
system.caches.L2Cache_Controller.L2_Replacement::total       173425                       (Unspecified)
system.caches.L2Cache_Controller.L2_Replacement_clean |      108344     12.52%     12.52% |      108177     12.50%     25.03% |      107757     12.46%     37.48% |      107942     12.48%     49.96% |      108303     12.52%     62.48% |      108130     12.50%     74.98% |      108344     12.52%     87.50% |      108159     12.50%    100.00% (Unspecified)
system.caches.L2Cache_Controller.L2_Replacement_clean::total       865156                       (Unspecified)
system.caches.L2Cache_Controller.Mem_Data |      146468     12.52%     12.52% |      146222     12.50%     25.02% |      145828     12.47%     37.49% |      146016     12.48%     49.97% |      146331     12.51%     62.49% |      146188     12.50%     74.98% |      146405     12.52%     87.50% |      146195     12.50%    100.00% (Unspecified)
system.caches.L2Cache_Controller.Mem_Data::total      1169653                       (Unspecified)
system.caches.L2Cache_Controller.Mem_Ack |      130084     12.53%     12.53% |      129838     12.50%     25.03% |      129444     12.46%     37.49% |      129632     12.48%     49.97% |      129947     12.51%     62.48% |      129804     12.50%     74.98% |      130021     12.52%     87.50% |      129811     12.50%    100.00% (Unspecified)
system.caches.L2Cache_Controller.Mem_Ack::total      1038581                       (Unspecified)
system.caches.L2Cache_Controller.WB_Data |         811     13.93%     13.93% |         683     11.73%     25.66% |         659     11.32%     36.97% |         660     11.33%     48.31% |         676     11.61%     59.92% |         672     11.54%     71.46% |        1009     17.33%     88.79% |         653     11.21%    100.00% (Unspecified)
system.caches.L2Cache_Controller.WB_Data::total         5823                       (Unspecified)
system.caches.L2Cache_Controller.WB_Data_clean |         840      9.06%      9.06% |         827      8.92%     17.97% |         861      9.28%     27.26% |         835      9.00%     36.26% |        3493     37.66%     73.92% |         805      8.68%     82.60% |         790      8.52%     91.12% |         824      8.88%    100.00% (Unspecified)
system.caches.L2Cache_Controller.WB_Data_clean::total         9275                       (Unspecified)
system.caches.L2Cache_Controller.Ack     |         802      9.54%      9.54% |         735      8.74%     18.28% |         799      9.50%     27.78% |         756      8.99%     36.77% |        3080     36.63%     73.40% |         753      8.95%     82.35% |         740      8.80%     91.15% |         744      8.85%    100.00% (Unspecified)
system.caches.L2Cache_Controller.Ack::total         8409                       (Unspecified)
system.caches.L2Cache_Controller.Ack_all |        1740     10.91%     10.91% |        1705     10.69%     21.61% |        1769     11.09%     32.70% |        1717     10.77%     43.47% |        3978     24.95%     68.42% |        1714     10.75%     79.17% |        1649     10.34%     89.51% |        1673     10.49%    100.00% (Unspecified)
system.caches.L2Cache_Controller.Ack_all::total        15945                       (Unspecified)
system.caches.L2Cache_Controller.Unblock |        1566     10.80%     10.80% |        1452     10.01%     20.81% |        1453     10.02%     30.82% |        1423      9.81%     40.63% |        4109     28.33%     68.96% |        1379      9.51%     78.47% |        1736     11.97%     90.44% |        1387      9.56%    100.00% (Unspecified)
system.caches.L2Cache_Controller.Unblock::total        14505                       (Unspecified)
system.caches.L2Cache_Controller.Exclusive_Unblock |      165106     12.90%     12.90% |      157234     12.28%     25.18% |      165224     12.91%     38.09% |      153585     12.00%     50.09% |      164487     12.85%     62.94% |      153918     12.02%     74.96% |      166397     13.00%     87.96% |      154079     12.04%    100.00% (Unspecified)
system.caches.L2Cache_Controller.Exclusive_Unblock::total      1280030                       (Unspecified)
system.caches.L2Cache_Controller.NP.L1_GET_INSTR |         782     12.74%     12.74% |         807     13.15%     25.90% |         748     12.19%     38.09% |         773     12.60%     50.68% |         761     12.40%     63.09% |         787     12.83%     75.91% |         735     11.98%     87.89% |         743     12.11%    100.00% (Unspecified)
system.caches.L2Cache_Controller.NP.L1_GET_INSTR::total         6136                       (Unspecified)
system.caches.L2Cache_Controller.NP.L1_GETS |      139672     12.52%     12.52% |      139414     12.50%     25.02% |      139087     12.47%     37.49% |      139223     12.48%     49.97% |      139574     12.51%     62.48% |      139384     12.50%     74.98% |      139644     12.52%     87.50% |      139428     12.50%    100.00% (Unspecified)
system.caches.L2Cache_Controller.NP.L1_GETS::total      1115426                       (Unspecified)
system.caches.L2Cache_Controller.NP.L1_GETX |        6014     12.51%     12.51% |        6001     12.48%     24.98% |        5993     12.46%     37.45% |        6020     12.52%     49.96% |        5996     12.47%     62.43% |        6017     12.51%     74.94% |        6026     12.53%     87.47% |        6024     12.53%    100.00% (Unspecified)
system.caches.L2Cache_Controller.NP.L1_GETX::total        48091                       (Unspecified)
system.caches.L2Cache_Controller.SS.L1_GET_INSTR |        1003      9.53%      9.53% |        1635     15.53%     25.06% |        1484     14.10%     39.16% |         837      7.95%     47.11% |        1185     11.26%     58.37% |        1414     13.43%     71.80% |        1503     14.28%     86.08% |        1465     13.92%    100.00% (Unspecified)
system.caches.L2Cache_Controller.SS.L1_GET_INSTR::total        10526                       (Unspecified)
system.caches.L2Cache_Controller.SS.L1_GETS |        8467     14.17%     14.17% |        7433     12.44%     26.60% |        7323     12.25%     38.85% |        6857     11.47%     50.32% |        7948     13.30%     63.62% |        6913     11.57%     75.18% |        7005     11.72%     86.90% |        7828     13.10%    100.00% (Unspecified)
system.caches.L2Cache_Controller.SS.L1_GETS::total        59774                       (Unspecified)
system.caches.L2Cache_Controller.SS.L1_GETX |         154     18.40%     18.40% |          96     11.47%     29.87% |          90     10.75%     40.62% |          91     10.87%     51.49% |         100     11.95%     63.44% |          81      9.68%     73.12% |         135     16.13%     89.25% |          90     10.75%    100.00% (Unspecified)
system.caches.L2Cache_Controller.SS.L1_GETX::total          837                       (Unspecified)
system.caches.L2Cache_Controller.SS.L1_UPGRADE |         745     12.76%     12.76% |         741     12.69%     25.45% |         669     11.46%     36.90% |         678     11.61%     48.51% |         704     12.05%     60.57% |         668     11.44%     72.00% |         981     16.80%     88.80% |         654     11.20%    100.00% (Unspecified)
system.caches.L2Cache_Controller.SS.L1_UPGRADE::total         5840                       (Unspecified)
system.caches.L2Cache_Controller.SS.L2_Replacement |         223     12.84%     12.84% |         205     11.80%     24.64% |         234     13.47%     38.11% |         232     13.36%     51.47% |         204     11.74%     63.21% |         207     11.92%     75.13% |         224     12.90%     88.03% |         208     11.97%    100.00% (Unspecified)
system.caches.L2Cache_Controller.SS.L2_Replacement::total         1737                       (Unspecified)
system.caches.L2Cache_Controller.SS.L2_Replacement_clean |         955      9.77%      9.77% |         934      9.55%     19.32% |         962      9.84%     29.15% |         939      9.60%     38.76% |        3248     33.21%     71.97% |         949      9.70%     81.68% |         884      9.04%     90.71% |         908      9.29%    100.00% (Unspecified)
system.caches.L2Cache_Controller.SS.L2_Replacement_clean::total         9779                       (Unspecified)
system.caches.L2Cache_Controller.M.L1_GETS |        7187     12.68%     12.68% |        7440     13.13%     25.81% |        6944     12.25%     38.07% |        7048     12.44%     50.51% |        7101     12.53%     63.04% |        6849     12.09%     75.12% |        6910     12.19%     87.32% |        7186     12.68%    100.00% (Unspecified)
system.caches.L2Cache_Controller.M.L1_GETS::total        56665                       (Unspecified)
system.caches.L2Cache_Controller.M.L1_GETX |         702     15.03%     15.03% |         466      9.98%     25.01% |         361      7.73%     32.73% |         499     10.68%     43.42% |         445      9.53%     52.94% |         895     19.16%     72.10% |         637     13.64%     85.74% |         666     14.26%    100.00% (Unspecified)
system.caches.L2Cache_Controller.M.L1_GETX::total         4671                       (Unspecified)
system.caches.L2Cache_Controller.M.L2_Replacement |       21489     12.53%     12.53% |       21435     12.50%     25.03% |       21431     12.50%     37.53% |       21432     12.50%     50.02% |       21416     12.49%     62.51% |       21438     12.50%     75.01% |       21426     12.49%     87.51% |       21422     12.49%    100.00% (Unspecified)
system.caches.L2Cache_Controller.M.L2_Replacement::total       171489                       (Unspecified)
system.caches.L2Cache_Controller.M.L2_Replacement_clean |      106770     12.55%     12.55% |      106640     12.54%     25.09% |      106177     12.48%     37.57% |      106411     12.51%     50.08% |      104493     12.29%     62.37% |      106554     12.53%     74.90% |      106883     12.57%     87.46% |      106626     12.54%    100.00% (Unspecified)
system.caches.L2Cache_Controller.M.L2_Replacement_clean::total       850554                       (Unspecified)
system.caches.L2Cache_Controller.MT.L1_GETS |        1566     10.80%     10.80% |        1452     10.01%     20.81% |        1453     10.02%     30.82% |        1423      9.81%     40.63% |        4109     28.33%     68.96% |        1379      9.51%     78.47% |        1736     11.97%     90.44% |        1387      9.56%    100.00% (Unspecified)
system.caches.L2Cache_Controller.MT.L1_GETS::total        14505                       (Unspecified)
system.caches.L2Cache_Controller.MT.L1_GETX |       10646     21.93%     21.93% |        3078      6.34%     28.27% |       12090     24.90%     53.17% |          30      0.06%     53.23% |       10576     21.78%     75.01% |          29      0.06%     75.07% |       12071     24.86%     99.94% |          31      0.06%    100.00% (Unspecified)
system.caches.L2Cache_Controller.MT.L1_GETX::total        48551                       (Unspecified)
system.caches.L2Cache_Controller.MT.L1_PUTX |      150259     12.57%     12.57% |      150063     12.55%     25.11% |      149023     12.46%     37.58% |      149494     12.50%     50.08% |      147201     12.31%     62.39% |      149835     12.53%     74.92% |      149958     12.54%     87.46% |      150003     12.54%    100.00% (Unspecified)
system.caches.L2Cache_Controller.MT.L1_PUTX::total      1195836                       (Unspecified)
system.caches.L2Cache_Controller.MT.L2_Replacement |          28     14.07%     14.07% |          21     10.55%     24.62% |          22     11.06%     35.68% |          26     13.07%     48.74% |          24     12.06%     60.80% |          29     14.57%     75.38% |          27     13.57%     88.94% |          22     11.06%    100.00% (Unspecified)
system.caches.L2Cache_Controller.MT.L2_Replacement::total          199                       (Unspecified)
system.caches.L2Cache_Controller.MT.L2_Replacement_clean |         619     12.83%     12.83% |         603     12.50%     25.34% |         618     12.81%     38.15% |         592     12.27%     50.43% |         562     11.65%     62.08% |         627     13.00%     75.08% |         577     11.96%     87.04% |         625     12.96%    100.00% (Unspecified)
system.caches.L2Cache_Controller.MT.L2_Replacement_clean::total         4823                       (Unspecified)
system.caches.L2Cache_Controller.M_I.L1_GET_INSTR |           1     33.33%     33.33% |           0      0.00%     33.33% |           0      0.00%     33.33% |           0      0.00%     33.33% |           0      0.00%     33.33% |           0      0.00%     33.33% |           1     33.33%     66.67% |           1     33.33%    100.00% (Unspecified)
system.caches.L2Cache_Controller.M_I.L1_GET_INSTR::total            3                       (Unspecified)
system.caches.L2Cache_Controller.M_I.Mem_Ack |      130084     12.53%     12.53% |      129838     12.50%     25.03% |      129444     12.46%     37.49% |      129632     12.48%     49.97% |      129947     12.51%     62.48% |      129804     12.50%     74.98% |      130021     12.52%     87.50% |      129811     12.50%    100.00% (Unspecified)
system.caches.L2Cache_Controller.M_I.Mem_Ack::total      1038581                       (Unspecified)
system.caches.L2Cache_Controller.MT_I.WB_Data |          22     12.64%     12.64% |          17      9.77%     22.41% |          18     10.34%     32.76% |          24     13.79%     46.55% |          20     11.49%     58.05% |          28     16.09%     74.14% |          25     14.37%     88.51% |          20     11.49%    100.00% (Unspecified)
system.caches.L2Cache_Controller.MT_I.WB_Data::total          174                       (Unspecified)
system.caches.L2Cache_Controller.MT_I.Ack_all |           6     24.00%     24.00% |           4     16.00%     40.00% |           4     16.00%     56.00% |           2      8.00%     64.00% |           4     16.00%     80.00% |           1      4.00%     84.00% |           2      8.00%     92.00% |           2      8.00%    100.00% (Unspecified)
system.caches.L2Cache_Controller.MT_I.Ack_all::total           25                       (Unspecified)
system.caches.L2Cache_Controller.MCT_I.WB_Data |          63     15.04%     15.04% |          41      9.79%     24.82% |          49     11.69%     36.52% |          48     11.46%     47.97% |          40      9.55%     57.52% |          70     16.71%     74.22% |          38      9.07%     83.29% |          70     16.71%    100.00% (Unspecified)
system.caches.L2Cache_Controller.MCT_I.WB_Data::total          419                       (Unspecified)
system.caches.L2Cache_Controller.MCT_I.Ack_all |         556     12.62%     12.62% |         562     12.76%     25.39% |         569     12.92%     38.31% |         544     12.35%     50.66% |         522     11.85%     62.51% |         557     12.65%     75.16% |         539     12.24%     87.40% |         555     12.60%    100.00% (Unspecified)
system.caches.L2Cache_Controller.MCT_I.Ack_all::total         4404                       (Unspecified)
system.caches.L2Cache_Controller.I_I.Ack |         579      8.68%      8.68% |         530      7.94%     16.62% |         565      8.47%     25.09% |         524      7.85%     32.94% |        2876     43.11%     76.05% |         546      8.18%     84.23% |         516      7.73%     91.97% |         536      8.03%    100.00% (Unspecified)
system.caches.L2Cache_Controller.I_I.Ack::total         6672                       (Unspecified)
system.caches.L2Cache_Controller.I_I.Ack_all |         955      9.77%      9.77% |         934      9.55%     19.32% |         962      9.84%     29.15% |         939      9.60%     38.76% |        3248     33.21%     71.97% |         949      9.70%     81.68% |         884      9.04%     90.71% |         908      9.29%    100.00% (Unspecified)
system.caches.L2Cache_Controller.I_I.Ack_all::total         9779                       (Unspecified)
system.caches.L2Cache_Controller.S_I.Ack |         223     12.84%     12.84% |         205     11.80%     24.64% |         234     13.47%     38.11% |         232     13.36%     51.47% |         204     11.74%     63.21% |         207     11.92%     75.13% |         224     12.90%     88.03% |         208     11.97%    100.00% (Unspecified)
system.caches.L2Cache_Controller.S_I.Ack::total         1737                       (Unspecified)
system.caches.L2Cache_Controller.S_I.Ack_all |         223     12.84%     12.84% |         205     11.80%     24.64% |         234     13.47%     38.11% |         232     13.36%     51.47% |         204     11.74%     63.21% |         207     11.92%     75.13% |         224     12.90%     88.03% |         208     11.97%    100.00% (Unspecified)
system.caches.L2Cache_Controller.S_I.Ack_all::total         1737                       (Unspecified)
system.caches.L2Cache_Controller.ISS.L1_GETS |          14     27.45%     27.45% |           2      3.92%     31.37% |          10     19.61%     50.98% |           4      7.84%     58.82% |           9     17.65%     76.47% |           5      9.80%     86.27% |           7     13.73%    100.00% |           0      0.00%    100.00% (Unspecified)
system.caches.L2Cache_Controller.ISS.L1_GETS::total           51                       (Unspecified)
system.caches.L2Cache_Controller.ISS.Mem_Data |      139658     12.52%     12.52% |      139412     12.50%     25.02% |      139077     12.47%     37.49% |      139219     12.48%     49.97% |      139565     12.51%     62.48% |      139379     12.50%     74.98% |      139637     12.52%     87.50% |      139428     12.50%    100.00% (Unspecified)
system.caches.L2Cache_Controller.ISS.Mem_Data::total      1115375                       (Unspecified)
system.caches.L2Cache_Controller.IS.L1_GET_INSTR |          92     15.11%     15.11% |          87     14.29%     29.39% |          71     11.66%     41.05% |          64     10.51%     51.56% |          75     12.32%     63.88% |          83     13.63%     77.50% |          66     10.84%     88.34% |          71     11.66%    100.00% (Unspecified)
system.caches.L2Cache_Controller.IS.L1_GET_INSTR::total          609                       (Unspecified)
system.caches.L2Cache_Controller.IS.Mem_Data |         796     12.87%     12.87% |         809     13.08%     25.94% |         758     12.25%     38.19% |         777     12.56%     50.75% |         770     12.45%     63.20% |         792     12.80%     76.00% |         742     11.99%     87.99% |         743     12.01%    100.00% (Unspecified)
system.caches.L2Cache_Controller.IS.Mem_Data::total         6187                       (Unspecified)
system.caches.L2Cache_Controller.IM.L1_GETX |           0      0.00%      0.00% |           0      0.00%      0.00% |           2     50.00%     50.00% |           0      0.00%     50.00% |           0      0.00%     50.00% |           0      0.00%     50.00% |           2     50.00%    100.00% |           0      0.00%    100.00% (Unspecified)
system.caches.L2Cache_Controller.IM.L1_GETX::total            4                       (Unspecified)
system.caches.L2Cache_Controller.IM.Mem_Data |        6014     12.51%     12.51% |        6001     12.48%     24.98% |        5993     12.46%     37.45% |        6020     12.52%     49.96% |        5996     12.47%     62.43% |        6017     12.51%     74.94% |        6026     12.53%     87.47% |        6024     12.53%    100.00% (Unspecified)
system.caches.L2Cache_Controller.IM.Mem_Data::total        48091                       (Unspecified)
system.caches.L2Cache_Controller.SS_MB.L1_GETS |           4      1.89%      1.89% |           0      0.00%      1.89% |           0      0.00%      1.89% |           1      0.47%      2.36% |           3      1.42%      3.77% |           0      0.00%      3.77% |         204     96.23%    100.00% |           0      0.00%    100.00% (Unspecified)
system.caches.L2Cache_Controller.SS_MB.L1_GETS::total          212                       (Unspecified)
system.caches.L2Cache_Controller.SS_MB.L1_GETX |           0      0.00%      0.00% |           0      0.00%      0.00% |           0      0.00%      0.00% |           0      0.00%      0.00% |           0      0.00%      0.00% |           0      0.00%      0.00% |           0      0.00%      0.00% |           1    100.00%    100.00% (Unspecified)
system.caches.L2Cache_Controller.SS_MB.L1_GETX::total            1                       (Unspecified)
system.caches.L2Cache_Controller.SS_MB.L1_UPGRADE |           2     66.67%     66.67% |           0      0.00%     66.67% |           0      0.00%     66.67% |           0      0.00%     66.67% |           0      0.00%     66.67% |           0      0.00%     66.67% |           1     33.33%    100.00% |           0      0.00%    100.00% (Unspecified)
system.caches.L2Cache_Controller.SS_MB.L1_UPGRADE::total            3                       (Unspecified)
system.caches.L2Cache_Controller.SS_MB.Exclusive_Unblock |         899     13.46%     13.46% |         837     12.54%     26.00% |         759     11.37%     37.37% |         769     11.52%     48.88% |         804     12.04%     60.93% |         749     11.22%     72.14% |        1116     16.71%     88.86% |         744     11.14%    100.00% (Unspecified)
system.caches.L2Cache_Controller.SS_MB.Exclusive_Unblock::total         6677                       (Unspecified)
system.caches.L2Cache_Controller.MT_MB.L1_GETS |           0      0.00%      0.00% |           1     25.00%     25.00% |           0      0.00%     25.00% |           1     25.00%     50.00% |           0      0.00%     50.00% |           1     25.00%     75.00% |           0      0.00%     75.00% |           1     25.00%    100.00% (Unspecified)
system.caches.L2Cache_Controller.MT_MB.L1_GETS::total            4                       (Unspecified)
system.caches.L2Cache_Controller.MT_MB.L1_GETX |          88     24.31%     24.31% |           0      0.00%     24.31% |          90     24.86%     49.17% |           0      0.00%     49.17% |          93     25.69%     74.86% |           0      0.00%     74.86% |          91     25.14%    100.00% |           0      0.00%    100.00% (Unspecified)
system.caches.L2Cache_Controller.MT_MB.L1_GETX::total          362                       (Unspecified)
system.caches.L2Cache_Controller.MT_MB.Exclusive_Unblock |      164207     12.90%     12.90% |      156397     12.28%     25.18% |      164465     12.92%     38.09% |      152816     12.00%     50.09% |      163683     12.85%     62.95% |      153169     12.03%     74.98% |      165281     12.98%     87.96% |      153335     12.04%    100.00% (Unspecified)
system.caches.L2Cache_Controller.MT_MB.Exclusive_Unblock::total      1273353                       (Unspecified)
system.caches.L2Cache_Controller.MT_IIB.WB_Data |         726     13.88%     13.88% |         625     11.95%     25.83% |         592     11.32%     37.15% |         588     11.24%     48.39% |         616     11.78%     60.17% |         574     10.98%     71.15% |         946     18.09%     89.24% |         563     10.76%    100.00% (Unspecified)
system.caches.L2Cache_Controller.MT_IIB.WB_Data::total         5230                       (Unspecified)
system.caches.L2Cache_Controller.MT_IIB.WB_Data_clean |         840      9.06%      9.06% |         827      8.92%     17.97% |         861      9.28%     27.26% |         835      9.00%     36.26% |        3493     37.66%     73.92% |         805      8.68%     82.60% |         790      8.52%     91.12% |         824      8.88%    100.00% (Unspecified)
system.caches.L2Cache_Controller.MT_IIB.WB_Data_clean::total         9275                       (Unspecified)
system.caches.L2Cache_Controller.MT_SB.L1_UPGRADE |           0      0.00%      0.00% |           0      0.00%      0.00% |           0      0.00%      0.00% |           0      0.00%      0.00% |           0      0.00%      0.00% |           0      0.00%      0.00% |         176    100.00%    100.00% |           0      0.00%    100.00% (Unspecified)
[...]
system.timingCpu0.exec_context.thread_0.statExecutedInstType::SimdSha1Hash2            0      0.00%     83.83% # Class of executed instruction. (Count)
system.timingCpu0.exec_context.thread_0.statExecutedInstType::SimdSha256Hash            0      0.00%     83.83% # Class of executed instruction. (Count)
system.timingCpu0.exec_context.thread_0.statExecutedInstType::SimdSha256Hash2            0      0.00%     83.83% # Class of executed instruction. (Count)
system.timingCpu0.exec_context.thread_0.statExecutedInstType::SimdShaSigma2            0      0.00%     83.83% # Class of executed instruction. (Count)
system.timingCpu0.exec_context.thread_0.statExecutedInstType::SimdShaSigma3            0      0.00%     83.83% # Class of executed instruction. (Count)
system.timingCpu0.exec_context.thread_0.statExecutedInstType::SimdPredAlu            0      0.00%     83.83% # Class of executed instruction. (Count)
system.timingCpu0.exec_context.thread_0.statExecutedInstType::MemRead     11167375     14.42%     98.26% # Class of executed instruction. (Count)
system.timingCpu0.exec_context.thread_0.statExecutedInstType::MemWrite      1337043      1.73%     99.99% # Class of executed instruction. (Count)
system.timingCpu0.exec_context.thread_0.statExecutedInstType::FloatMemRead         5433      0.01%     99.99% # Class of executed instruction. (Count)
system.timingCpu0.exec_context.thread_0.statExecutedInstType::FloatMemWrite         5628      0.01%    100.00% # Class of executed instruction. (Count)
system.timingCpu0.exec_context.thread_0.statExecutedInstType::IprAccess            0      0.00%    100.00% # Class of executed instruction. (Count)
system.timingCpu0.exec_context.thread_0.statExecutedInstType::InstPrefetch            0      0.00%    100.00% # Class of executed instruction. (Count)
system.timingCpu0.exec_context.thread_0.statExecutedInstType::total     77420873                       # Class of executed instruction. (Count)
system.timingCpu0.mmu.dtb.rdAccesses         11180929                       # TLB accesses on read requests (Count)
system.timingCpu0.mmu.dtb.wrAccesses          1343039                       # TLB accesses on write requests (Count)
system.timingCpu0.mmu.dtb.rdMisses               7462                       # TLB misses on read requests (Count)
system.timingCpu0.mmu.dtb.wrMisses                378                       # TLB misses on write requests (Count)
system.timingCpu0.mmu.dtb.walker.power_state.pwrStateResidencyTicks::UNDEFINED 154135375655751                       # Cumulative time (in ticks) in various power states (Tick)
system.timingCpu0.mmu.itb.rdAccesses                0                       # TLB accesses on read requests (Count)
system.timingCpu0.mmu.itb.wrAccesses         57624397                       # TLB accesses on write requests (Count)
system.timingCpu0.mmu.itb.rdMisses                  0                       # TLB misses on read requests (Count)
system.timingCpu0.mmu.itb.wrMisses                527                       # TLB misses on write requests (Count)
system.timingCpu0.mmu.itb.walker.power_state.pwrStateResidencyTicks::UNDEFINED 154135375655751                       # Cumulative time (in ticks) in various power states (Tick)
system.timingCpu0.power_state.numTransitions            4                       # Number of power state transitions (Count)
system.timingCpu0.power_state.ticksClkGated::samples            2                       # Distribution of time spent in the clock gated state (Tick)
system.timingCpu0.power_state.ticksClkGated::mean    289803250                       # Distribution of time spent in the clock gated state (Tick)
system.timingCpu0.power_state.ticksClkGated::stdev 25564385.013628                       # Distribution of time spent in the clock gated state (Tick)
system.timingCpu0.power_state.ticksClkGated::1000-5e+10            2    100.00%    100.00% # Distribution of time spent in the clock gated state (Tick)
system.timingCpu0.power_state.ticksClkGated::min_value    271726500                       # Distribution of time spent in the clock gated state (Tick)
system.timingCpu0.power_state.ticksClkGated::max_value    307880000                       # Distribution of time spent in the clock gated state (Tick)
system.timingCpu0.power_state.ticksClkGated::total            2                       # Distribution of time spent in the clock gated state (Tick)
system.timingCpu0.power_state.pwrStateResidencyTicks::ON   1067775751                       # Cumulative time (in ticks) in various power states (Tick)
system.timingCpu0.power_state.pwrStateResidencyTicks::CLK_GATED    579606500                       # Cumulative time (in ticks) in various power states (Tick)
system.timingCpu0.power_state.pwrStateResidencyTicks::OFF 154133728273500                       # Cumulative time (in ticks) in various power states (Tick)
system.timingCpu0.thread_0.numInsts                 0                       # Number of Instructions committed (Count)
system.timingCpu0.thread_0.numOps                   0                       # Number of Ops committed (Count)
system.timingCpu0.thread_0.numMemRefs               0                       # Number of Memory References (Count)
system.timingCpu1.numCycles                 383478762                       # Number of cpu cycles simulated (Cycle)
system.timingCpu1.numWorkItemsStarted               0                       # Number of work items this cpu started (Count)
system.timingCpu1.numWorkItemsCompleted             1                       # Number of work items this cpu completed (Count)
system.timingCpu1.exec_context.thread_0.numInsts     42423913                       # Number of instructions committed (Count)
system.timingCpu1.exec_context.thread_0.numOps     70334777                       # Number of ops (including micro ops) committed (Count)
system.timingCpu1.exec_context.thread_0.numIntAluAccesses     69824998                       # Number of integer alu accesses (Count)
system.timingCpu1.exec_context.thread_0.numFpAluAccesses        87733                       # Number of float alu accesses (Count)
system.timingCpu1.exec_context.thread_0.numVecAluAccesses            0                       # Number of vector alu accesses (Count)
system.timingCpu1.exec_context.thread_0.numCallsReturns        80992                       # Number of times a function call or return occured (Count)
system.timingCpu1.exec_context.thread_0.numCondCtrlInsts      8644377                       # Number of instructions that are conditional controls (Count)
system.timingCpu1.exec_context.thread_0.numIntInsts     69824998                       # Number of integer instructions (Count)
system.timingCpu1.exec_context.thread_0.numFpInsts        87733                       # Number of float instructions (Count)
system.timingCpu1.exec_context.thread_0.numVecInsts            0                       # Number of vector instructions (Count)
system.timingCpu1.exec_context.thread_0.numIntRegReads     90512634                       # Number of times the integer registers were read (Count)
system.timingCpu1.exec_context.thread_0.numIntRegWrites     50877213                       # Number of times the integer registers were written (Count)
system.timingCpu1.exec_context.thread_0.numFpRegReads        87879                       # Number of times the floating registers were read (Count)
system.timingCpu1.exec_context.thread_0.numFpRegWrites         3661                       # Number of times the floating registers were written (Count)
system.timingCpu1.exec_context.thread_0.numVecRegReads            0                       # Number of times the vector registers were read (Count)
system.timingCpu1.exec_context.thread_0.numVecRegWrites            0                       # Number of times the vector registers were written (Count)
system.timingCpu1.exec_context.thread_0.numVecPredRegReads            0                       # Number of times the predicate registers were read (Count)
system.timingCpu1.exec_context.thread_0.numVecPredRegWrites            0                       # Number of times the predicate registers were written (Count)
system.timingCpu1.exec_context.thread_0.numCCRegReads     48923520                       # Number of times the CC registers were read (Count)
system.timingCpu1.exec_context.thread_0.numCCRegWrites     34919491                       # Number of times the CC registers were written (Count)
system.timingCpu1.exec_context.thread_0.numMiscRegReads     29708816                       # Number of times the Misc registers were read (Count)
system.timingCpu1.exec_context.thread_0.numMiscRegWrites        10518                       # Number of times the Misc registers were written (Count)
system.timingCpu1.exec_context.thread_0.numMemRefs     12213057                       # Number of memory refs (Count)
system.timingCpu1.exec_context.thread_0.numLoadInsts     10654681                       # Number of load instructions (Count)
system.timingCpu1.exec_context.thread_0.numStoreInsts      1558376                       # Number of store instructions (Count)
system.timingCpu1.exec_context.thread_0.numIdleCycles            0                       # Number of idle cycles (Cycle)
system.timingCpu1.exec_context.thread_0.numBusyCycles    383478762                       # Number of busy cycles (Cycle)
system.timingCpu1.exec_context.thread_0.notIdleFraction            1                       # Percentage of non-idle cycles (Ratio)
system.timingCpu1.exec_context.thread_0.idleFraction            0                       # Percentage of idle cycles (Ratio)
system.timingCpu1.exec_context.thread_0.numBranches      8755212                       # Number of branches fetched (Count)
system.timingCpu1.exec_context.thread_0.statExecutedInstType::No_OpClass       195761      0.28%      0.28% # Class of executed instruction. (Count)
system.timingCpu1.exec_context.thread_0.statExecutedInstType::IntAlu     57905599     82.33%     82.61% # Class of executed instruction. (Count)
system.timingCpu1.exec_context.thread_0.statExecutedInstType::IntMult        12531      0.02%     82.62% # Class of executed instruction. (Count)
system.timingCpu1.exec_context.thread_0.statExecutedInstType::IntDiv         6316      0.01%     82.63% # Class of executed instruction. (Count)
system.timingCpu1.exec_context.thread_0.statExecutedInstType::FloatAdd          139      0.00%     82.63% # Class of executed instruction. (Count)
system.timingCpu1.exec_context.thread_0.statExecutedInstType::FloatCmp            0      0.00%     82.63% # Class of executed instruction. (Count)
system.timingCpu1.exec_context.thread_0.statExecutedInstType::FloatCvt           96      0.00%     82.63% # Class of executed instruction. (Count)
system.timingCpu1.exec_context.thread_0.statExecutedInstType::FloatMult            0      0.00%     82.63% # Class of executed instruction. (Count)
system.timingCpu1.exec_context.thread_0.statExecutedInstType::FloatMultAcc            0      0.00%     82.63% # Class of executed instruction. (Count)
system.timingCpu1.exec_context.thread_0.statExecutedInstType::FloatDiv            0      0.00%     82.63% # Class of executed instruction. (Count)
system.timingCpu1.exec_context.thread_0.statExecutedInstType::FloatMisc            0      0.00%     82.63% # Class of executed instruction. (Count)
system.timingCpu1.exec_context.thread_0.statExecutedInstType::FloatSqrt            0      0.00%     82.63% # Class of executed instruction. (Count)
system.timingCpu1.exec_context.thread_0.statExecutedInstType::SimdAdd           78      0.00%     82.63% # Class of executed instruction. (Count)
system.timingCpu1.exec_context.thread_0.statExecutedInstType::SimdAddAcc            0      0.00%     82.63% # Class of executed instruction. (Count)
system.timingCpu1.exec_context.thread_0.statExecutedInstType::SimdAlu          546      0.00%     82.63% # Class of executed instruction. (Count)
system.timingCpu1.exec_context.thread_0.statExecutedInstType::SimdCmp            0      0.00%     82.63% # Class of executed instruction. (Count)
system.timingCpu1.exec_context.thread_0.statExecutedInstType::SimdCvt          378      0.00%     82.63% # Class of executed instruction. (Count)
system.timingCpu1.exec_context.thread_0.statExecutedInstType::SimdMisc          622      0.00%     82.64% # Class of executed instruction. (Count)
system.timingCpu1.exec_context.thread_0.statExecutedInstType::SimdMult            0      0.00%     82.64% # Class of executed instruction. (Count)
system.timingCpu1.exec_context.thread_0.statExecutedInstType::SimdMultAcc            0      0.00%     82.64% # Class of executed instruction. (Count)
system.timingCpu1.exec_context.thread_0.statExecutedInstType::SimdShift           85      0.00%     82.64% # Class of executed instruction. (Count)
system.timingCpu1.exec_context.thread_0.statExecutedInstType::SimdShiftAcc            0      0.00%     82.64% # Class of executed instruction. (Count)
system.timingCpu1.exec_context.thread_0.statExecutedInstType::SimdDiv            0      0.00%     82.64% # Class of executed instruction. (Count)
system.timingCpu1.exec_context.thread_0.statExecutedInstType::SimdSqrt            0      0.00%     82.64% # Class of executed instruction. (Count)
system.timingCpu1.exec_context.thread_0.statExecutedInstType::SimdFloatAdd            1      0.00%     82.64% # Class of executed instruction. (Count)
system.timingCpu1.exec_context.thread_0.statExecutedInstType::SimdFloatAlu            0      0.00%     82.64% # Class of executed instruction. (Count)
system.timingCpu1.exec_context.thread_0.statExecutedInstType::SimdFloatCmp            0      0.00%     82.64% # Class of executed instruction. (Count)
system.timingCpu1.exec_context.thread_0.statExecutedInstType::SimdFloatCvt           36      0.00%     82.64% # Class of executed instruction. (Count)
system.timingCpu1.exec_context.thread_0.statExecutedInstType::SimdFloatDiv           12      0.00%     82.64% # Class of executed instruction. (Count)
system.timingCpu1.exec_context.thread_0.statExecutedInstType::SimdFloatMisc            0      0.00%     82.64% # Class of executed instruction. (Count)
system.timingCpu1.exec_context.thread_0.statExecutedInstType::SimdFloatMult            0      0.00%     82.64% # Class of executed instruction. (Count)
system.timingCpu1.exec_context.thread_0.statExecutedInstType::SimdFloatMultAcc            0      0.00%     82.64% # Class of executed instruction. (Count)
system.timingCpu1.exec_context.thread_0.statExecutedInstType::SimdFloatSqrt            0      0.00%     82.64% # Class of executed instruction. (Count)
system.timingCpu1.exec_context.thread_0.statExecutedInstType::SimdReduceAdd            0      0.00%     82.64% # Class of executed instruction. (Count)
system.timingCpu1.exec_context.thread_0.statExecutedInstType::SimdReduceAlu            0      0.00%     82.64% # Class of executed instruction. (Count)
system.timingCpu1.exec_context.thread_0.statExecutedInstType::SimdReduceCmp            0      0.00%     82.64% # Class of executed instruction. (Count)
system.timingCpu1.exec_context.thread_0.statExecutedInstType::SimdFloatReduceAdd            0      0.00%     82.64% # Class of executed instruction. (Count)
system.timingCpu1.exec_context.thread_0.statExecutedInstType::SimdFloatReduceCmp            0      0.00%     82.64% # Class of executed instruction. (Count)
system.timingCpu1.exec_context.thread_0.statExecutedInstType::SimdAes            0      0.00%     82.64% # Class of executed instruction. (Count)
system.timingCpu1.exec_context.thread_0.statExecutedInstType::SimdAesMix            0      0.00%     82.64% # Class of executed instruction. (Count)
system.timingCpu1.exec_context.thread_0.statExecutedInstType::SimdSha1Hash            0      0.00%     82.64% # Class of executed instruction. (Count)
system.timingCpu1.exec_context.thread_0.statExecutedInstType::SimdSha1Hash2            0      0.00%     82.64% # Class of executed instruction. (Count)
system.timingCpu1.exec_context.thread_0.statExecutedInstType::SimdSha256Hash            0      0.00%     82.64% # Class of executed instruction. (Count)
system.timingCpu1.exec_context.thread_0.statExecutedInstType::SimdSha256Hash2            0      0.00%     82.64% # Class of executed instruction. (Count)
system.timingCpu1.exec_context.thread_0.statExecutedInstType::SimdShaSigma2            0      0.00%     82.64% # Class of executed instruction. (Count)
system.timingCpu1.exec_context.thread_0.statExecutedInstType::SimdShaSigma3            0      0.00%     82.64% # Class of executed instruction. (Count)
system.timingCpu1.exec_context.thread_0.statExecutedInstType::SimdPredAlu            0      0.00%     82.64% # Class of executed instruction. (Count)
system.timingCpu1.exec_context.thread_0.statExecutedInstType::MemRead     10652798     15.15%     97.78% # Class of executed instruction. (Count)
system.timingCpu1.exec_context.thread_0.statExecutedInstType::MemWrite      1474698      2.10%     99.88% # Class of executed instruction. (Count)
system.timingCpu1.exec_context.thread_0.statExecutedInstType::FloatMemRead         1883      0.00%     99.88% # Class of executed instruction. (Count)
system.timingCpu1.exec_context.thread_0.statExecutedInstType::FloatMemWrite        83678      0.12%    100.00% # Class of executed instruction. (Count)
system.timingCpu1.exec_context.thread_0.statExecutedInstType::IprAccess            0      0.00%    100.00% # Class of executed instruction. (Count)
system.timingCpu1.exec_context.thread_0.statExecutedInstType::InstPrefetch            0      0.00%    100.00% # Class of executed instruction. (Count)
system.timingCpu1.exec_context.thread_0.statExecutedInstType::total     70335257                       # Class of executed instruction. (Count)
system.timingCpu1.mmu.dtb.rdAccesses         10661537                       # TLB accesses on read requests (Count)
system.timingCpu1.mmu.dtb.wrAccesses          1558434                       # TLB accesses on write requests (Count)
system.timingCpu1.mmu.dtb.rdMisses               8541                       # TLB misses on read requests (Count)
system.timingCpu1.mmu.dtb.wrMisses                687                       # TLB misses on write requests (Count)
system.timingCpu1.mmu.dtb.walker.power_state.pwrStateResidencyTicks::UNDEFINED 154135375655751                       # Cumulative time (in ticks) in various power states (Tick)
system.timingCpu1.mmu.itb.rdAccesses                0                       # TLB accesses on read requests (Count)
system.timingCpu1.mmu.itb.wrAccesses         52527800                       # TLB accesses on write requests (Count)
system.timingCpu1.mmu.itb.rdMisses                  0                       # TLB misses on read requests (Count)
system.timingCpu1.mmu.itb.wrMisses               1279                       # TLB misses on write requests (Count)
system.timingCpu1.mmu.itb.walker.power_state.pwrStateResidencyTicks::UNDEFINED 154135375655751                       # Cumulative time (in ticks) in various power states (Tick)
system.timingCpu1.power_state.pwrStateResidencyTicks::OFF 154135375655751                       # Cumulative time (in ticks) in various power states (Tick)
system.timingCpu1.thread_0.numInsts                 0                       # Number of Instructions committed (Count)
system.timingCpu1.thread_0.numOps                   0                       # Number of Ops committed (Count)
system.timingCpu1.thread_0.numMemRefs               0                       # Number of Memory References (Count)
system.workload.inst.arm                            0                       # number of arm instructions executed (Count)
system.workload.inst.quiesce                        0                       # number of quiesce instructions executed (Count)

---------- End Simulation Statistics   ----------
