
---------- Begin Simulation Statistics ----------
simSeconds                                   1.983421                       # Number of seconds simulated (Second)
simTicks                                 1983421122751                       # Number of ticks simulated (Tick)
finalTick                                153716686228251                       # Number of ticks from beginning of simulation (restored from checkpoints and never reset) (Tick)
simFreq                                  1000000000000                       # The number of ticks per simulated second ((Tick/Second))
hostSeconds                                  10629.13                       # Real time elapsed on the host (Second)
hostTickRate                                186602376                       # The number of ticks simulated per host second (ticks/s) ((Tick/Second))
hostMemory                                    7941260                       # Number of bytes of host memory used (Byte)
simInsts                                  39804127950                       # Number of instructions simulated (Count)
simOps                                    41235303676                       # Number of ops (including micro ops) simulated (Count)
hostInstRate                                  3744815                       # Simulator instruction rate (inst/s) ((Count/Second))
hostOpRate                                    3879461                       # Simulator op (including micro ops) rate (op/s) ((Count/Second))
system.work_item_type0::samples                     1                       # Run time stat forwork_item_type0 (Unspecified)
system.work_item_type0::mean             1983421122751                       # Run time stat forwork_item_type0 (Unspecified)
system.work_item_type0::gmean            1983421122750.997803                       # Run time stat forwork_item_type0 (Unspecified)
system.work_item_type0::stdev                     nan                       # Run time stat forwork_item_type0 (Unspecified)
system.work_item_type0::0-1.37439e+11               0      0.00%      0.00% # Run time stat forwork_item_type0 (Unspecified)
system.work_item_type0::1.37439e+11-2.74878e+11            0      0.00%      0.00% # Run time stat forwork_item_type0 (Unspecified)
system.work_item_type0::2.74878e+11-4.12317e+11            0      0.00%      0.00% # Run time stat forwork_item_type0 (Unspecified)
system.work_item_type0::4.12317e+11-5.49756e+11            0      0.00%      0.00% # Run time stat forwork_item_type0 (Unspecified)
system.work_item_type0::5.49756e+11-6.87195e+11            0      0.00%      0.00% # Run time stat forwork_item_type0 (Unspecified)
system.work_item_type0::6.87195e+11-8.24634e+11            0      0.00%      0.00% # Run time stat forwork_item_type0 (Unspecified)
system.work_item_type0::8.24634e+11-9.62073e+11            0      0.00%      0.00% # Run time stat forwork_item_type0 (Unspecified)
system.work_item_type0::9.62073e+11-1.09951e+12            0      0.00%      0.00% # Run time stat forwork_item_type0 (Unspecified)
system.work_item_type0::1.09951e+12-1.23695e+12            0      0.00%      0.00% # Run time stat forwork_item_type0 (Unspecified)
system.work_item_type0::1.23695e+12-1.37439e+12            0      0.00%      0.00% # Run time stat forwork_item_type0 (Unspecified)
system.work_item_type0::1.37439e+12-1.51183e+12            0      0.00%      0.00% # Run time stat forwork_item_type0 (Unspecified)
system.work_item_type0::1.51183e+12-1.64927e+12            0      0.00%      0.00% # Run time stat forwork_item_type0 (Unspecified)
system.work_item_type0::1.64927e+12-1.78671e+12            0      0.00%      0.00% # Run time stat forwork_item_type0 (Unspecified)
system.work_item_type0::1.78671e+12-1.92415e+12            0      0.00%      0.00% # Run time stat forwork_item_type0 (Unspecified)
system.work_item_type0::1.92415e+12-2.06158e+12            1    100.00%    100.00% # Run time stat forwork_item_type0 (Unspecified)
system.work_item_type0::2.06158e+12-2.19902e+12            0      0.00%    100.00% # Run time stat forwork_item_type0 (Unspecified)
system.work_item_type0::2.19902e+12-2.33646e+12            0      0.00%    100.00% # Run time stat forwork_item_type0 (Unspecified)
system.work_item_type0::2.33646e+12-2.4739e+12            0      0.00%    100.00% # Run time stat forwork_item_type0 (Unspecified)
system.work_item_type0::2.4739e+12-2.61134e+12            0      0.00%    100.00% # Run time stat forwork_item_type0 (Unspecified)
system.work_item_type0::2.61134e+12-2.74878e+12            0      0.00%    100.00% # Run time stat forwork_item_type0 (Unspecified)
system.work_item_type0::total                       1                       # Run time stat forwork_item_type0 (Unspecified)
system.atomicCpu0.numCycles                         0                       # Number of cpu cycles simulated (Cycle)
system.atomicCpu0.numWorkItemsStarted               0                       # Number of work items this cpu started (Count)
system.atomicCpu0.numWorkItemsCompleted             0                       # Number of work items this cpu completed (Count)
system.atomicCpu0.exec_context.thread_0.numInsts            0                       # Number of instructions committed (Count)
system.atomicCpu0.exec_context.thread_0.numOps            0                       # Number of ops (including micro ops) committed (Count)
system.atomicCpu0.exec_context.thread_0.numIntAluAccesses            0                       # Number of integer alu accesses (Count)
system.atomicCpu0.exec_context.thread_0.numFpAluAccesses            0                       # Number of float alu accesses (Count)
system.atomicCpu0.exec_context.thread_0.numVecAluAccesses            0                       # Number of vector alu accesses (Count)
system.atomicCpu0.exec_context.thread_0.numCallsReturns            0                       # Number of times a function call or return occured (Count)
system.atomicCpu0.exec_context.thread_0.numCondCtrlInsts            0                       # Number of instructions that are conditional controls (Count)
system.atomicCpu0.exec_context.thread_0.numIntInsts            0                       # Number of integer instructions (Count)
system.atomicCpu0.exec_context.thread_0.numFpInsts            0                       # Number of float instructions (Count)
system.atomicCpu0.exec_context.thread_0.numVecInsts            0                       # Number of vector instructions (Count)
system.atomicCpu0.exec_context.thread_0.numIntRegReads            0                       # Number of times the integer registers were read (Count)
system.atomicCpu0.exec_context.thread_0.numIntRegWrites            0                       # Number of times the integer registers were written (Count)
system.atomicCpu0.exec_context.thread_0.numFpRegReads            0                       # Number of times the floating registers were read (Count)
system.atomicCpu0.exec_context.thread_0.numFpRegWrites            0                       # Number of times the floating registers were written (Count)
system.atomicCpu0.exec_context.thread_0.numVecRegReads            0                       # Number of times the vector registers were read (Count)
system.atomicCpu0.exec_context.thread_0.numVecRegWrites            0                       # Number of times the vector registers were written (Count)
system.atomicCpu0.exec_context.thread_0.numVecPredRegReads            0                       # Number of times the predicate registers were read (Count)
system.atomicCpu0.exec_context.thread_0.numVecPredRegWrites            0                       # Number of times the predicate registers were written (Count)
system.atomicCpu0.exec_context.thread_0.numMiscRegReads            0                       # Number of times the Misc registers were read (Count)
system.atomicCpu0.exec_context.thread_0.numMiscRegWrites            0                       # Number of times the Misc registers were written (Count)
system.atomicCpu0.exec_context.thread_0.numMemRefs            0                       # Number of memory refs (Count)
system.atomicCpu0.exec_context.thread_0.numLoadInsts            0                       # Number of load instructions (Count)
system.atomicCpu0.exec_context.thread_0.numStoreInsts            0                       # Number of store instructions (Count)
system.atomicCpu0.exec_context.thread_0.numIdleCycles            0                       # Number of idle cycles (Cycle)
system.atomicCpu0.exec_context.thread_0.numBusyCycles            0                       # Number of busy cycles (Cycle)
system.atomicCpu0.exec_context.thread_0.notIdleFraction            0                       # Percentage of non-idle cycles (Ratio)
system.atomicCpu0.exec_context.thread_0.idleFraction            1                       # Percentage of idle cycles (Ratio)
system.atomicCpu0.exec_context.thread_0.statExecutedInstType::No_OpClass            0                       # Class of executed instruction. (Count)
system.atomicCpu0.exec_context.thread_0.statExecutedInstType::IntAlu            0                       # Class of executed instruction. (Count)
system.atomicCpu0.exec_context.thread_0.statExecutedInstType::IntMult            0                       # Class of executed instruction. (Count)
system.atomicCpu0.exec_context.thread_0.statExecutedInstType::IntDiv            0                       # Class of executed instruction. (Count)
system.atomicCpu0.exec_context.thread_0.statExecutedInstType::FloatAdd            0                       # Class of executed instruction. (Count)
system.atomicCpu0.exec_context.thread_0.statExecutedInstType::FloatCmp            0                       # Class of executed instruction. (Count)
system.atomicCpu0.exec_context.thread_0.statExecutedInstType::FloatCvt            0                       # Class of executed instruction. (Count)
system.atomicCpu0.exec_context.thread_0.statExecutedInstType::FloatMult            0                       # Class of executed instruction. (Count)
system.atomicCpu0.exec_context.thread_0.statExecutedInstType::FloatMultAcc            0                       # Class of executed instruction. (Count)
system.atomicCpu0.exec_context.thread_0.statExecutedInstType::FloatDiv            0                       # Class of executed instruction. (Count)
system.atomicCpu0.exec_context.thread_0.statExecutedInstType::FloatMisc            0                       # Class of executed instruction. (Count)
system.atomicCpu0.exec_context.thread_0.statExecutedInstType::FloatSqrt            0                       # Class of executed instruction. (Count)
system.atomicCpu0.exec_context.thread_0.statExecutedInstType::SimdAdd            0                       # Class of executed instruction. (Count)
system.atomicCpu0.exec_context.thread_0.statExecutedInstType::SimdAddAcc            0                       # Class of executed instruction. (Count)
system.atomicCpu0.exec_context.thread_0.statExecutedInstType::SimdAlu            0                       # Class of executed instruction. (Count)
system.atomicCpu0.exec_context.thread_0.statExecutedInstType::SimdCmp            0                       # Class of executed instruction. (Count)
system.atomicCpu0.exec_context.thread_0.statExecutedInstType::SimdCvt            0                       # Class of executed instruction. (Count)
system.atomicCpu0.exec_context.thread_0.statExecutedInstType::SimdMisc            0                       # Class of executed instruction. (Count)
system.atomicCpu0.exec_context.thread_0.statExecutedInstType::SimdMult            0                       # Class of executed instruction. (Count)
system.atomicCpu0.exec_context.thread_0.statExecutedInstType::SimdMultAcc            0                       # Class of executed instruction. (Count)
system.atomicCpu0.exec_context.thread_0.statExecutedInstType::SimdShift            0                       # Class of executed instruction. (Count)
system.atomicCpu0.exec_context.thread_0.statExecutedInstType::SimdShiftAcc            0                       # Class of executed instruction. (Count)
system.atomicCpu0.exec_context.thread_0.statExecutedInstType::SimdDiv            0                       # Class of executed instruction. (Count)
system.atomicCpu0.exec_context.thread_0.statExecutedInstType::SimdSqrt            0                       # Class of executed instruction. (Count)
system.atomicCpu0.exec_context.thread_0.statExecutedInstType::SimdFloatAdd            0                       # Class of executed instruction. (Count)
system.atomicCpu0.exec_context.thread_0.statExecutedInstType::SimdFloatAlu            0                       # Class of executed instruction. (Count)
system.atomicCpu0.exec_context.thread_0.statExecutedInstType::SimdFloatCmp            0                       # Class of executed instruction. (Count)
system.atomicCpu0.exec_context.thread_0.statExecutedInstType::SimdFloatCvt            0                       # Class of executed instruction. (Count)
system.atomicCpu0.exec_context.thread_0.statExecutedInstType::SimdFloatDiv            0                       # Class of executed instruction. (Count)
system.atomicCpu0.exec_context.thread_0.statExecutedInstType::SimdFloatMisc            0                       # Class of executed instruction. (Count)
system.atomicCpu0.exec_context.thread_0.statExecutedInstType::SimdFloatMult            0                       # Class of executed instruction. (Count)
system.atomicCpu0.exec_context.thread_0.statExecutedInstType::SimdFloatMultAcc            0                       # Class of executed instruction. (Count)
system.atomicCpu0.exec_context.thread_0.statExecutedInstType::SimdFloatSqrt            0                       # Class of executed instruction. (Count)
system.atomicCpu0.exec_context.thread_0.statExecutedInstType::SimdReduceAdd            0                       # Class of executed instruction. (Count)
system.atomicCpu0.exec_context.thread_0.statExecutedInstType::SimdReduceAlu            0                       # Class of executed instruction. (Count)
system.atomicCpu0.exec_context.thread_0.statExecutedInstType::SimdReduceCmp            0                       # Class of executed instruction. (Count)
system.atomicCpu0.exec_context.thread_0.statExecutedInstType::SimdFloatReduceAdd            0                       # Class of executed instruction. (Count)
system.atomicCpu0.exec_context.thread_0.statExecutedInstType::SimdFloatReduceCmp            0                       # Class of executed instruction. (Count)
system.atomicCpu0.exec_context.thread_0.statExecutedInstType::SimdAes            0                       # Class of executed instruction. (Count)
system.atomicCpu0.exec_context.thread_0.statExecutedInstType::SimdAesMix            0                       # Class of executed instruction. (Count)
system.atomicCpu0.exec_context.thread_0.statExecutedInstType::SimdSha1Hash            0                       # Class of executed instruction. (Count)
system.atomicCpu0.exec_context.thread_0.statExecutedInstType::SimdSha1Hash2            0                       # Class of executed instruction. (Count)
system.atomicCpu0.exec_context.thread_0.statExecutedInstType::SimdSha256Hash            0                       # Class of executed instruction. (Count)
system.atomicCpu0.exec_context.thread_0.statExecutedInstType::SimdSha256Hash2            0                       # Class of executed instruction. (Count)
system.atomicCpu0.exec_context.thread_0.statExecutedInstType::SimdShaSigma2            0                       # Class of executed instruction. (Count)
system.atomicCpu0.exec_context.thread_0.statExecutedInstType::SimdShaSigma3            0                       # Class of executed instruction. (Count)
system.atomicCpu0.exec_context.thread_0.statExecutedInstType::SimdPredAlu            0                       # Class of executed instruction. (Count)
system.atomicCpu0.exec_context.thread_0.statExecutedInstType::MemRead            0                       # Class of executed instruction. (Count)
system.atomicCpu0.exec_context.thread_0.statExecutedInstType::MemWrite            0                       # Class of executed instruction. (Count)
system.atomicCpu0.exec_context.thread_0.statExecutedInstType::FloatMemRead            0                       # Class of executed instruction. (Count)
system.atomicCpu0.exec_context.thread_0.statExecutedInstType::FloatMemWrite            0                       # Class of executed instruction. (Count)
system.atomicCpu0.exec_context.thread_0.statExecutedInstType::IprAccess            0                       # Class of executed instruction. (Count)
system.atomicCpu0.exec_context.thread_0.statExecutedInstType::InstPrefetch            0                       # Class of executed instruction. (Count)
system.atomicCpu0.exec_context.thread_0.statExecutedInstType::total            0                       # Class of executed instruction. (Count)
system.atomicCpu0.mmu.dtb.rdAccesses                0                       # TLB accesses on read requests (Count)
system.atomicCpu0.mmu.dtb.wrAccesses                0                       # TLB accesses on write requests (Count)
system.atomicCpu0.mmu.dtb.rdMisses                  0                       # TLB misses on read requests (Count)
system.atomicCpu0.mmu.dtb.wrMisses                  0                       # TLB misses on write requests (Count)
system.atomicCpu0.mmu.dtb.walker.power_state.pwrStateResidencyTicks::UNDEFINED 153716686228251                       # Cumulative time (in ticks) in various power states (Tick)
system.atomicCpu0.mmu.itb.rdAccesses                0                       # TLB accesses on read requests (Count)
system.atomicCpu0.mmu.itb.wrAccesses                0                       # TLB accesses on write requests (Count)
system.atomicCpu0.mmu.itb.rdMisses                  0                       # TLB misses on read requests (Count)
system.atomicCpu0.mmu.itb.wrMisses                  0                       # TLB misses on write requests (Count)
system.atomicCpu0.mmu.itb.walker.power_state.pwrStateResidencyTicks::UNDEFINED 153716686228251                       # Cumulative time (in ticks) in various power states (Tick)
system.atomicCpu0.power_state.pwrStateResidencyTicks::OFF 153716686228251                       # Cumulative time (in ticks) in various power states (Tick)
system.atomicCpu0.thread_0.numInsts                 0                       # Number of Instructions committed (Count)
system.atomicCpu0.thread_0.numOps                   0                       # Number of Ops committed (Count)
system.atomicCpu0.thread_0.numMemRefs               0                       # Number of Memory References (Count)
system.atomicCpu1.numCycles                         0                       # Number of cpu cycles simulated (Cycle)
system.atomicCpu1.numWorkItemsStarted               0                       # Number of work items this cpu started (Count)
system.atomicCpu1.numWorkItemsCompleted             0                       # Number of work items this cpu completed (Count)
system.atomicCpu1.exec_context.thread_0.numInsts            0                       # Number of instructions committed (Count)
system.atomicCpu1.exec_context.thread_0.numOps            0                       # Number of ops (including micro ops) committed (Count)
system.atomicCpu1.exec_context.thread_0.numIntAluAccesses            0                       # Number of integer alu accesses (Count)
system.atomicCpu1.exec_context.thread_0.numFpAluAccesses            0                       # Number of float alu accesses (Count)
system.atomicCpu1.exec_context.thread_0.numVecAluAccesses            0                       # Number of vector alu accesses (Count)
system.atomicCpu1.exec_context.thread_0.numCallsReturns            0                       # Number of times a function call or return occured (Count)
system.atomicCpu1.exec_context.thread_0.numCondCtrlInsts            0                       # Number of instructions that are conditional controls (Count)
system.atomicCpu1.exec_context.thread_0.numIntInsts            0                       # Number of integer instructions (Count)
system.atomicCpu1.exec_context.thread_0.numFpInsts            0                       # Number of float instructions (Count)
system.atomicCpu1.exec_context.thread_0.numVecInsts            0                       # Number of vector instructions (Count)
system.atomicCpu1.exec_context.thread_0.numIntRegReads            0                       # Number of times the integer registers were read (Count)
system.atomicCpu1.exec_context.thread_0.numIntRegWrites            0                       # Number of times the integer registers were written (Count)
system.atomicCpu1.exec_context.thread_0.numFpRegReads            0                       # Number of times the floating registers were read (Count)
system.atomicCpu1.exec_context.thread_0.numFpRegWrites            0                       # Number of times the floating registers were written (Count)
system.atomicCpu1.exec_context.thread_0.numVecRegReads            0                       # Number of times the vector registers were read (Count)
system.atomicCpu1.exec_context.thread_0.numVecRegWrites            0                       # Number of times the vector registers were written (Count)
system.atomicCpu1.exec_context.thread_0.numVecPredRegReads            0                       # Number of times the predicate registers were read (Count)
system.atomicCpu1.exec_context.thread_0.numVecPredRegWrites            0                       # Number of times the predicate registers were written (Count)
system.atomicCpu1.exec_context.thread_0.numMiscRegReads            0                       # Number of times the Misc registers were read (Count)
system.atomicCpu1.exec_context.thread_0.numMiscRegWrites            0                       # Number of times the Misc registers were written (Count)
system.atomicCpu1.exec_context.thread_0.numMemRefs            0                       # Number of memory refs (Count)
system.atomicCpu1.exec_context.thread_0.numLoadInsts            0                       # Number of load instructions (Count)
system.atomicCpu1.exec_context.thread_0.numStoreInsts            0                       # Number of store instructions (Count)
system.atomicCpu1.exec_context.thread_0.numIdleCycles            0                       # Number of idle cycles (Cycle)
system.atomicCpu1.exec_context.thread_0.numBusyCycles            0                       # Number of busy cycles (Cycle)
system.atomicCpu1.exec_context.thread_0.notIdleFraction            0                       # Percentage of non-idle cycles (Ratio)
system.atomicCpu1.exec_context.thread_0.idleFraction            1                       # Percentage of idle cycles (Ratio)
system.atomicCpu1.exec_context.thread_0.statExecutedInstType::No_OpClass            0                       # Class of executed instruction. (Count)
system.atomicCpu1.exec_context.thread_0.statExecutedInstType::IntAlu            0                       # Class of executed instruction. (Count)
system.atomicCpu1.exec_context.thread_0.statExecutedInstType::IntMult            0                       # Class of executed instruction. (Count)
system.atomicCpu1.exec_context.thread_0.statExecutedInstType::IntDiv            0                       # Class of executed instruction. (Count)
system.atomicCpu1.exec_context.thread_0.statExecutedInstType::FloatAdd            0                       # Class of executed instruction. (Count)
system.atomicCpu1.exec_context.thread_0.statExecutedInstType::FloatCmp            0                       # Class of executed instruction. (Count)
system.atomicCpu1.exec_context.thread_0.statExecutedInstType::FloatCvt            0                       # Class of executed instruction. (Count)
system.atomicCpu1.exec_context.thread_0.statExecutedInstType::FloatMult            0                       # Class of executed instruction. (Count)
system.atomicCpu1.exec_context.thread_0.statExecutedInstType::FloatMultAcc            0                       # Class of executed instruction. (Count)
system.atomicCpu1.exec_context.thread_0.statExecutedInstType::FloatDiv            0                       # Class of executed instruction. (Count)
system.atomicCpu1.exec_context.thread_0.statExecutedInstType::FloatMisc            0                       # Class of executed instruction. (Count)
system.atomicCpu1.exec_context.thread_0.statExecutedInstType::FloatSqrt            0                       # Class of executed instruction. (Count)
system.atomicCpu1.exec_context.thread_0.statExecutedInstType::SimdAdd            0                       # Class of executed instruction. (Count)
system.atomicCpu1.exec_context.thread_0.statExecutedInstType::SimdAddAcc            0                       # Class of executed instruction. (Count)
system.atomicCpu1.exec_context.thread_0.statExecutedInstType::SimdAlu            0                       # Class of executed instruction. (Count)
system.atomicCpu1.exec_context.thread_0.statExecutedInstType::SimdCmp            0                       # Class of executed instruction. (Count)
system.atomicCpu1.exec_context.thread_0.statExecutedInstType::SimdCvt            0                       # Class of executed instruction. (Count)
system.atomicCpu1.exec_context.thread_0.statExecutedInstType::SimdMisc            0                       # Class of executed instruction. (Count)
system.atomicCpu1.exec_context.thread_0.statExecutedInstType::SimdMult            0                       # Class of executed instruction. (Count)
system.atomicCpu1.exec_context.thread_0.statExecutedInstType::SimdMultAcc            0                       # Class of executed instruction. (Count)
system.atomicCpu1.exec_context.thread_0.statExecutedInstType::SimdShift            0                       # Class of executed instruction. (Count)
system.atomicCpu1.exec_context.thread_0.statExecutedInstType::SimdShiftAcc            0                       # Class of executed instruction. (Count)
system.atomicCpu1.exec_context.thread_0.statExecutedInstType::SimdDiv            0                       # Class of executed instruction. (Count)
system.atomicCpu1.exec_context.thread_0.statExecutedInstType::SimdSqrt            0                       # Class of executed instruction. (Count)
system.atomicCpu1.exec_context.thread_0.statExecutedInstType::SimdFloatAdd            0                       # Class of executed instruction. (Count)
system.atomicCpu1.exec_context.thread_0.statExecutedInstType::SimdFloatAlu            0                       # Class of executed instruction. (Count)
system.atomicCpu1.exec_context.thread_0.statExecutedInstType::SimdFloatCmp            0                       # Class of executed instruction. (Count)
system.atomicCpu1.exec_context.thread_0.statExecutedInstType::SimdFloatCvt            0                       # Class of executed instruction. (Count)
system.atomicCpu1.exec_context.thread_0.statExecutedInstType::SimdFloatDiv            0                       # Class of executed instruction. (Count)
system.atomicCpu1.exec_context.thread_0.statExecutedInstType::SimdFloatMisc            0                       # Class of executed instruction. (Count)
system.atomicCpu1.exec_context.thread_0.statExecutedInstType::SimdFloatMult            0                       # Class of executed instruction. (Count)
system.atomicCpu1.exec_context.thread_0.statExecutedInstType::SimdFloatMultAcc            0                       # Class of executed instruction. (Count)
system.atomicCpu1.exec_context.thread_0.statExecutedInstType::SimdFloatSqrt            0                       # Class of executed instruction. (Count)
system.atomicCpu1.exec_context.thread_0.statExecutedInstType::SimdReduceAdd            0                       # Class of executed instruction. (Count)
system.atomicCpu1.exec_context.thread_0.statExecutedInstType::SimdReduceAlu            0                       # Class of executed instruction. (Count)
system.atomicCpu1.exec_context.thread_0.statExecutedInstType::SimdReduceCmp            0                       # Class of executed instruction. (Count)
system.atomicCpu1.exec_context.thread_0.statExecutedInstType::SimdFloatReduceAdd            0                       # Class of executed instruction. (Count)
system.atomicCpu1.exec_context.thread_0.statExecutedInstType::SimdFloatReduceCmp            0                       # Class of executed instruction. (Count)
system.atomicCpu1.exec_context.thread_0.statExecutedInstType::SimdAes            0                       # Class of executed instruction. (Count)
system.atomicCpu1.exec_context.thread_0.statExecutedInstType::SimdAesMix            0                       # Class of executed instruction. (Count)
system.atomicCpu1.exec_context.thread_0.statExecutedInstType::SimdSha1Hash            0                       # Class of executed instruction. (Count)
system.atomicCpu1.exec_context.thread_0.statExecutedInstType::SimdSha1Hash2            0                       # Class of executed instruction. (Count)
system.atomicCpu1.exec_context.thread_0.statExecutedInstType::SimdSha256Hash            0                       # Class of executed instruction. (Count)
system.atomicCpu1.exec_context.thread_0.statExecutedInstType::SimdSha256Hash2            0                       # Class of executed instruction. (Count)
system.atomicCpu1.exec_context.thread_0.statExecutedInstType::SimdShaSigma2            0                       # Class of executed instruction. (Count)
system.atomicCpu1.exec_context.thread_0.statExecutedInstType::SimdShaSigma3            0                       # Class of executed instruction. (Count)
system.atomicCpu1.exec_context.thread_0.statExecutedInstType::SimdPredAlu            0                       # Class of executed instruction. (Count)
system.atomicCpu1.exec_context.thread_0.statExecutedInstType::MemRead            0                       # Class of executed instruction. (Count)
system.atomicCpu1.exec_context.thread_0.statExecutedInstType::MemWrite            0                       # Class of executed instruction. (Count)
system.atomicCpu1.exec_context.thread_0.statExecutedInstType::FloatMemRead            0                       # Class of executed instruction. (Count)
system.atomicCpu1.exec_context.thread_0.statExecutedInstType::FloatMemWrite            0                       # Class of executed instruction. (Count)
system.atomicCpu1.exec_context.thread_0.statExecutedInstType::IprAccess            0                       # Class of executed instruction. (Count)
system.atomicCpu1.exec_context.thread_0.statExecutedInstType::InstPrefetch            0                       # Class of executed instruction. (Count)
system.atomicCpu1.exec_context.thread_0.statExecutedInstType::total            0                       # Class of executed instruction. (Count)
system.atomicCpu1.mmu.dtb.rdAccesses                0                       # TLB accesses on read requests (Count)
system.atomicCpu1.mmu.dtb.wrAccesses                0                       # TLB accesses on write requests (Count)
system.atomicCpu1.mmu.dtb.rdMisses                  0                       # TLB misses on read requests (Count)
system.atomicCpu1.mmu.dtb.wrMisses                  0                       # TLB misses on write requests (Count)
system.atomicCpu1.mmu.dtb.walker.power_state.pwrStateResidencyTicks::UNDEFINED 153716686228251                       # Cumulative time (in ticks) in various power states (Tick)
system.atomicCpu1.mmu.itb.rdAccesses                0                       # TLB accesses on read requests (Count)
system.atomicCpu1.mmu.itb.wrAccesses                0                       # TLB accesses on write requests (Count)
system.atomicCpu1.mmu.itb.rdMisses                  0                       # TLB misses on read requests (Count)
system.atomicCpu1.mmu.itb.wrMisses                  0                       # TLB misses on write requests (Count)
system.atomicCpu1.mmu.itb.walker.power_state.pwrStateResidencyTicks::UNDEFINED 153716686228251                       # Cumulative time (in ticks) in various power states (Tick)
system.atomicCpu1.power_state.pwrStateResidencyTicks::OFF 153716686228251                       # Cumulative time (in ticks) in various power states (Tick)
system.atomicCpu1.thread_0.numInsts                 0                       # Number of Instructions committed (Count)
system.atomicCpu1.thread_0.numOps                   0                       # Number of Ops committed (Count)
system.atomicCpu1.thread_0.numMemRefs               0                       # Number of Memory References (Count)
system.caches.delayHistogram::bucket_size           64                       # delay histogram for all message (Unspecified)
system.caches.delayHistogram::max_bucket          639                       # delay histogram for all message (Unspecified)
system.caches.delayHistogram::samples       579633275                       # delay histogram for all message (Unspecified)
system.caches.delayHistogram::mean           0.135623                       # delay histogram for all message (Unspecified)
system.caches.delayHistogram::stdev          1.032778                       # delay histogram for all message (Unspecified)
system.caches.delayHistogram             |   579633232    100.00%    100.00% |          29      0.00%    100.00% |           0      0.00%    100.00% |           0      0.00%    100.00% |           1      0.00%    100.00% |           0      0.00%    100.00% |           7      0.00%    100.00% |           3      0.00%    100.00% |           2      0.00%    100.00% |           1      0.00%    100.00% # delay histogram for all message (Unspecified)
system.caches.delayHistogram::total         579633275                       # delay histogram for all message (Unspecified)
system.caches.m_outstandReqHistSeqr::bucket_size            1                       (Unspecified)
system.caches.m_outstandReqHistSeqr::max_bucket            9                       (Unspecified)
system.caches.m_outstandReqHistSeqr::samples   3044675698                       (Unspecified)
system.caches.m_outstandReqHistSeqr::mean     1.005244                       (Unspecified)
system.caches.m_outstandReqHistSeqr::gmean     1.003642                       (Unspecified)
system.caches.m_outstandReqHistSeqr::stdev     0.072228                       (Unspecified)
system.caches.m_outstandReqHistSeqr      |           0      0.00%      0.00% |  3028708392     99.48%     99.48% |    15967306      0.52%    100.00% |           0      0.00%    100.00% |           0      0.00%    100.00% |           0      0.00%    100.00% |           0      0.00%    100.00% |           0      0.00%    100.00% |           0      0.00%    100.00% |           0      0.00%    100.00% (Unspecified)
system.caches.m_outstandReqHistSeqr::total   3044675698                       (Unspecified)
system.caches.m_latencyHistSeqr::bucket_size          512                       (Unspecified)
system.caches.m_latencyHistSeqr::max_bucket         5119                       (Unspecified)
system.caches.m_latencyHistSeqr::samples   3044675696                       (Unspecified)
system.caches.m_latencyHistSeqr::mean        4.254474                       (Unspecified)
system.caches.m_latencyHistSeqr::gmean       1.212116                       (Unspecified)
system.caches.m_latencyHistSeqr::stdev      34.658859                       (Unspecified)
system.caches.m_latencyHistSeqr          |  3043170954     99.95%     99.95% |      997565      0.03%     99.98% |      253747      0.01%     99.99% |      246873      0.01%    100.00% |        6214      0.00%    100.00% |         338      0.00%    100.00% |           5      0.00%    100.00% |           0      0.00%    100.00% |           0      0.00%    100.00% |           0      0.00%    100.00% (Unspecified)
system.caches.m_latencyHistSeqr::total     3044675696                       (Unspecified)
system.caches.m_hitLatencyHistSeqr::bucket_size            1                       (Unspecified)
system.caches.m_hitLatencyHistSeqr::max_bucket            9                       (Unspecified)
system.caches.m_hitLatencyHistSeqr::samples   2845389909                       (Unspecified)
system.caches.m_hitLatencyHistSeqr::mean            1                       (Unspecified)
system.caches.m_hitLatencyHistSeqr::gmean            1                       (Unspecified)
system.caches.m_hitLatencyHistSeqr       |           0      0.00%      0.00% |  2845389909    100.00%    100.00% |           0      0.00%    100.00% |           0      0.00%    100.00% |           0      0.00%    100.00% |           0      0.00%    100.00% |           0      0.00%    100.00% |           0      0.00%    100.00% |           0      0.00%    100.00% |           0      0.00%    100.00% (Unspecified)
system.caches.m_hitLatencyHistSeqr::total   2845389909                       (Unspecified)
system.caches.m_missLatencyHistSeqr::bucket_size          512                       (Unspecified)
system.caches.m_missLatencyHistSeqr::max_bucket         5119                       (Unspecified)
system.caches.m_missLatencyHistSeqr::samples    199285787                       (Unspecified)
system.caches.m_missLatencyHistSeqr::mean    50.721650                       (Unspecified)
system.caches.m_missLatencyHistSeqr::gmean    18.896571                       (Unspecified)
system.caches.m_missLatencyHistSeqr::stdev   126.656983                       (Unspecified)
system.caches.m_missLatencyHistSeqr      |   197781045     99.24%     99.24% |      997565      0.50%     99.75% |      253747      0.13%     99.87% |      246873      0.12%    100.00% |        6214      0.00%    100.00% |         338      0.00%    100.00% |           5      0.00%    100.00% |           0      0.00%    100.00% |           0      0.00%    100.00% |           0      0.00%    100.00% (Unspecified)
system.caches.m_missLatencyHistSeqr::total    199285787                       (Unspecified)
system.caches.delayVCHist.vnet_0::bucket_size           64                       # delay histogram for vnet_0 (Unspecified)
system.caches.delayVCHist.vnet_0::max_bucket          639                       # delay histogram for vnet_0 (Unspecified)
system.caches.delayVCHist.vnet_0::samples    285348051                       # delay histogram for vnet_0 (Unspecified)
system.caches.delayVCHist.vnet_0::mean       0.038450                       # delay histogram for vnet_0 (Unspecified)
system.caches.delayVCHist.vnet_0::stdev      0.554694                       # delay histogram for vnet_0 (Unspecified)
system.caches.delayVCHist.vnet_0         |   285348008    100.00%    100.00% |          29      0.00%    100.00% |           0      0.00%    100.00% |           0      0.00%    100.00% |           1      0.00%    100.00% |           0      0.00%    100.00% |           7      0.00%    100.00% |           3      0.00%    100.00% |           2      0.00%    100.00% |           1      0.00%    100.00% # delay histogram for vnet_0 (Unspecified)
system.caches.delayVCHist.vnet_0::total     285348051                       # delay histogram for vnet_0 (Unspecified)
system.caches.delayVCHist.vnet_1::bucket_size            2                       # delay histogram for vnet_1 (Unspecified)
system.caches.delayVCHist.vnet_1::max_bucket           19                       # delay histogram for vnet_1 (Unspecified)
system.caches.delayVCHist.vnet_1::samples    289660721                       # delay histogram for vnet_1 (Unspecified)
system.caches.delayVCHist.vnet_1::mean       0.233504                       # delay histogram for vnet_1 (Unspecified)
system.caches.delayVCHist.vnet_1::stdev      1.346147                       # delay histogram for vnet_1 (Unspecified)
system.caches.delayVCHist.vnet_1         |   281186979     97.07%     97.07% |       15149      0.01%     97.08% |       10278      0.00%     97.08% |       18975      0.01%     97.09% |     8420865      2.91%    100.00% |        8475      0.00%    100.00% |           0      0.00%    100.00% |           0      0.00%    100.00% |           0      0.00%    100.00% |           0      0.00%    100.00% # delay histogram for vnet_1 (Unspecified)
system.caches.delayVCHist.vnet_1::total     289660721                       # delay histogram for vnet_1 (Unspecified)
system.caches.delayVCHist.vnet_2::bucket_size            1                       # delay histogram for vnet_2 (Unspecified)
system.caches.delayVCHist.vnet_2::max_bucket            9                       # delay histogram for vnet_2 (Unspecified)
system.caches.delayVCHist.vnet_2::samples      4624503                       # delay histogram for vnet_2 (Unspecified)
system.caches.delayVCHist.vnet_2::mean       0.000610                       # delay histogram for vnet_2 (Unspecified)
system.caches.delayVCHist.vnet_2::stdev      0.034930                       # delay histogram for vnet_2 (Unspecified)
system.caches.delayVCHist.vnet_2         |     4623092     99.97%     99.97% |           0      0.00%     99.97% |        1411      0.03%    100.00% |           0      0.00%    100.00% |           0      0.00%    100.00% |           0      0.00%    100.00% |           0      0.00%    100.00% |           0      0.00%    100.00% |           0      0.00%    100.00% |           0      0.00%    100.00% # delay histogram for vnet_2 (Unspecified)
system.caches.delayVCHist.vnet_2::total       4624503                       # delay histogram for vnet_2 (Unspecified)
system.caches.L1Cache_Controller.Load    |   454386589     50.19%     50.19% |   450890797     49.81%    100.00% (Unspecified)
system.caches.L1Cache_Controller.Load::total    905277386                       (Unspecified)
system.caches.L1Cache_Controller.Ifetch  |  1067331380     50.35%     50.35% |  1052394172     49.65%    100.00% (Unspecified)
system.caches.L1Cache_Controller.Ifetch::total   2119725552                       (Unspecified)
system.caches.L1Cache_Controller.Store   |     9919434     50.42%     50.42% |     9753325     49.58%    100.00% (Unspecified)
system.caches.L1Cache_Controller.Store::total     19672759                       (Unspecified)
system.caches.L1Cache_Controller.Inv     |     1476395     49.98%     49.98% |     1477296     50.02%    100.00% (Unspecified)
system.caches.L1Cache_Controller.Inv::total      2953691                       (Unspecified)
system.caches.L1Cache_Controller.L1_Replacement |    99356397     49.95%     49.95% |    99564725     50.05%    100.00% (Unspecified)
system.caches.L1Cache_Controller.L1_Replacement::total    198921122                       (Unspecified)
system.caches.L1Cache_Controller.Fwd_GETX |       42401     49.84%     49.84% |       42674     50.16%    100.00% (Unspecified)
system.caches.L1Cache_Controller.Fwd_GETX::total        85075                       (Unspecified)
system.caches.L1Cache_Controller.Fwd_GETS |      801713     50.56%     50.56% |      784024     49.44%    100.00% (Unspecified)
system.caches.L1Cache_Controller.Fwd_GETS::total      1585737                       (Unspecified)
system.caches.L1Cache_Controller.Data    |       66608     51.96%     51.96% |       61580     48.04%    100.00% (Unspecified)
system.caches.L1Cache_Controller.Data::total       128188                       (Unspecified)
system.caches.L1Cache_Controller.Data_Exclusive |    21107230     49.93%     49.93% |    21164152     50.07%    100.00% (Unspecified)
system.caches.L1Cache_Controller.Data_Exclusive::total     42271382                       (Unspecified)
system.caches.L1Cache_Controller.DataS_fromL1 |      784024     49.44%     49.44% |      801713     50.56%    100.00% (Unspecified)
system.caches.L1Cache_Controller.DataS_fromL1::total      1585737                       (Unspecified)
system.caches.L1Cache_Controller.Data_all_Acks |    77522610     49.96%     49.96% |    77661545     50.04%    100.00% (Unspecified)
system.caches.L1Cache_Controller.Data_all_Acks::total    155184155                       (Unspecified)
system.caches.L1Cache_Controller.Ack     |       62635     53.84%     53.84% |       53690     46.16%    100.00% (Unspecified)
system.caches.L1Cache_Controller.Ack::total       116325                       (Unspecified)
system.caches.L1Cache_Controller.Ack_all |      129243     52.86%     52.86% |      115270     47.14%    100.00% (Unspecified)
system.caches.L1Cache_Controller.Ack_all::total       244513                       (Unspecified)
system.caches.L1Cache_Controller.WB_Ack  |    20677817     49.95%     49.95% |    20721442     50.05%    100.00% (Unspecified)
system.caches.L1Cache_Controller.WB_Ack::total     41399259                       (Unspecified)
system.caches.L1Cache_Controller.NP.Load |    98982459     49.93%     49.93% |    99240895     50.07%    100.00% (Unspecified)
system.caches.L1Cache_Controller.NP.Load::total    198223354                       (Unspecified)
system.caches.L1Cache_Controller.NP.Ifetch |       66304     61.44%     61.44% |       41615     38.56%    100.00% (Unspecified)
system.caches.L1Cache_Controller.NP.Ifetch::total       107919                       (Unspecified)
system.caches.L1Cache_Controller.NP.Store |      316338     52.09%     52.09% |      290919     47.91%    100.00% (Unspecified)
system.caches.L1Cache_Controller.NP.Store::total       607257                       (Unspecified)
system.caches.L1Cache_Controller.NP.Inv  |     1355646     49.97%     49.97% |     1357024     50.03%    100.00% (Unspecified)
system.caches.L1Cache_Controller.NP.Inv::total      2712670                       (Unspecified)
system.caches.L1Cache_Controller.I.Load  |       23812     42.96%     42.96% |       31619     57.04%    100.00% (Unspecified)
system.caches.L1Cache_Controller.I.Load::total        55431                       (Unspecified)
system.caches.L1Cache_Controller.I.Ifetch |       50547     54.24%     54.24% |       42652     45.76%    100.00% (Unspecified)
system.caches.L1Cache_Controller.I.Ifetch::total        93199                       (Unspecified)
system.caches.L1Cache_Controller.I.Store |       40355     50.18%     50.18% |       40073     49.82%    100.00% (Unspecified)
system.caches.L1Cache_Controller.I.Store::total        80428                       (Unspecified)
system.caches.L1Cache_Controller.I.L1_Replacement |       47758     50.35%     50.35% |       47093     49.65%    100.00% (Unspecified)
system.caches.L1Cache_Controller.I.L1_Replacement::total        94851                       (Unspecified)
system.caches.L1Cache_Controller.S.Load  |   210545524     50.18%     50.18% |   209063533     49.82%    100.00% (Unspecified)
system.caches.L1Cache_Controller.S.Load::total    419609057                       (Unspecified)
system.caches.L1Cache_Controller.S.Ifetch |  1067214529     50.35%     50.35% |  1052309905     49.65%    100.00% (Unspecified)
system.caches.L1Cache_Controller.S.Ifetch::total   2119524434                       (Unspecified)
system.caches.L1Cache_Controller.S.Store |       63293     53.55%     53.55% |       54907     46.45%    100.00% (Unspecified)
system.caches.L1Cache_Controller.S.Store::total       118200                       (Unspecified)
system.caches.L1Cache_Controller.S.Inv   |      119326     50.18%     50.18% |      118464     49.82%    100.00% (Unspecified)
system.caches.L1Cache_Controller.S.Inv::total       237790                       (Unspecified)
system.caches.L1Cache_Controller.S.L1_Replacement |    78630822     49.95%     49.95% |    78796190     50.05%    100.00% (Unspecified)
system.caches.L1Cache_Controller.S.L1_Replacement::total    157427012                       (Unspecified)
system.caches.L1Cache_Controller.E.Load  |   139155353     50.36%     50.36% |   137142117     49.64%    100.00% (Unspecified)
system.caches.L1Cache_Controller.E.Load::total    276297470                       (Unspecified)
system.caches.L1Cache_Controller.E.Store |      298077     51.15%     51.15% |      284707     48.85%    100.00% (Unspecified)
system.caches.L1Cache_Controller.E.Store::total       582784                       (Unspecified)
system.caches.L1Cache_Controller.E.Inv   |         473     48.61%     48.61% |         500     51.39%    100.00% (Unspecified)
system.caches.L1Cache_Controller.E.Inv::total          973                       (Unspecified)
system.caches.L1Cache_Controller.E.L1_Replacement |    20071592     49.91%     49.91% |    20147485     50.09%    100.00% (Unspecified)
system.caches.L1Cache_Controller.E.L1_Replacement::total     40219077                       (Unspecified)
system.caches.L1Cache_Controller.E.Fwd_GETX |          47      5.05%      5.05% |         884     94.95%    100.00% (Unspecified)
system.caches.L1Cache_Controller.E.Fwd_GETX::total          931                       (Unspecified)
system.caches.L1Cache_Controller.E.Fwd_GETS |      735875     50.22%     50.22% |      729325     49.78%    100.00% (Unspecified)
system.caches.L1Cache_Controller.E.Fwd_GETS::total      1465200                       (Unspecified)
system.caches.L1Cache_Controller.M.Load  |     5679441     51.20%     51.20% |     5412633     48.80%    100.00% (Unspecified)
system.caches.L1Cache_Controller.M.Load::total     11092074                       (Unspecified)
system.caches.L1Cache_Controller.M.Store |     9201371     50.32%     50.32% |     9082719     49.68%    100.00% (Unspecified)
system.caches.L1Cache_Controller.M.Store::total     18284090                       (Unspecified)
system.caches.L1Cache_Controller.M.Inv   |         291     78.44%     78.44% |          80     21.56%    100.00% (Unspecified)
system.caches.L1Cache_Controller.M.Inv::total          371                       (Unspecified)
system.caches.L1Cache_Controller.M.L1_Replacement |      606225     51.37%     51.37% |      573957     48.63%    100.00% (Unspecified)
system.caches.L1Cache_Controller.M.L1_Replacement::total      1180182                       (Unspecified)
system.caches.L1Cache_Controller.M.Fwd_GETX |       42354     50.34%     50.34% |       41790     49.66%    100.00% (Unspecified)
system.caches.L1Cache_Controller.M.Fwd_GETX::total        84144                       (Unspecified)
system.caches.L1Cache_Controller.M.Fwd_GETS |       65815     54.62%     54.62% |       54689     45.38%    100.00% (Unspecified)
system.caches.L1Cache_Controller.M.Fwd_GETS::total       120504                       (Unspecified)
system.caches.L1Cache_Controller.IS.Inv  |           1      8.33%      8.33% |          11     91.67%    100.00% (Unspecified)
system.caches.L1Cache_Controller.IS.Inv::total           12                       (Unspecified)
system.caches.L1Cache_Controller.IS.Data_Exclusive |    21107229     49.93%     49.93% |    21164151     50.07%    100.00% (Unspecified)
system.caches.L1Cache_Controller.IS.Data_Exclusive::total     42271380                       (Unspecified)
system.caches.L1Cache_Controller.IS.DataS_fromL1 |      784024     49.44%     49.44% |      801703     50.56%    100.00% (Unspecified)
system.caches.L1Cache_Controller.IS.DataS_fromL1::total      1585727                       (Unspecified)
system.caches.L1Cache_Controller.IS.Data_all_Acks |    77231867     49.95%     49.95% |    77390916     50.05%    100.00% (Unspecified)
system.caches.L1Cache_Controller.IS.Data_all_Acks::total    154622783                       (Unspecified)
system.caches.L1Cache_Controller.IM.Data |       66608     51.96%     51.96% |       61580     48.04%    100.00% (Unspecified)
system.caches.L1Cache_Controller.IM.Data::total       128188                       (Unspecified)
system.caches.L1Cache_Controller.IM.Data_all_Acks |      290743     51.79%     51.79% |      270629     48.21%    100.00% (Unspecified)
system.caches.L1Cache_Controller.IM.Data_all_Acks::total       561372                       (Unspecified)
system.caches.L1Cache_Controller.SM.Inv  |         658     35.09%     35.09% |        1217     64.91%    100.00% (Unspecified)
system.caches.L1Cache_Controller.SM.Inv::total         1875                       (Unspecified)
system.caches.L1Cache_Controller.SM.Ack  |       62635     53.84%     53.84% |       53690     46.16%    100.00% (Unspecified)
system.caches.L1Cache_Controller.SM.Ack::total       116325                       (Unspecified)
system.caches.L1Cache_Controller.SM.Ack_all |      129243     52.86%     52.86% |      115270     47.14%    100.00% (Unspecified)
system.caches.L1Cache_Controller.SM.Ack_all::total       244513                       (Unspecified)
system.caches.L1Cache_Controller.IS_I.Data_Exclusive |           1     50.00%     50.00% |           1     50.00%    100.00% (Unspecified)
system.caches.L1Cache_Controller.IS_I.Data_Exclusive::total            2                       (Unspecified)
system.caches.L1Cache_Controller.IS_I.DataS_fromL1 |           0      0.00%      0.00% |          10    100.00%    100.00% (Unspecified)
system.caches.L1Cache_Controller.IS_I.DataS_fromL1::total           10                       (Unspecified)
system.caches.L1Cache_Controller.M_I.Fwd_GETS |          23     69.70%     69.70% |          10     30.30%    100.00% (Unspecified)
system.caches.L1Cache_Controller.M_I.Fwd_GETS::total           33                       (Unspecified)
system.caches.L1Cache_Controller.M_I.WB_Ack |    20677794     49.95%     49.95% |    20721432     50.05%    100.00% (Unspecified)
system.caches.L1Cache_Controller.M_I.WB_Ack::total     41399226                       (Unspecified)
system.caches.L1Cache_Controller.SINK_WB_ACK.WB_Ack |          23     69.70%     69.70% |          10     30.30%    100.00% (Unspecified)
system.caches.L1Cache_Controller.SINK_WB_ACK.WB_Ack::total           33                       (Unspecified)
system.caches.Directory_Controller.Fetch     22283660      0.00%      0.00% (Unspecified)
system.caches.Directory_Controller.Data        985022      0.00%      0.00% (Unspecified)
system.caches.Directory_Controller.Memory_Data     22283659      0.00%      0.00% (Unspecified)
system.caches.Directory_Controller.Memory_Ack       985022      0.00%      0.00% (Unspecified)
system.caches.Directory_Controller.CleanReplacement     21167566      0.00%      0.00% (Unspecified)
system.caches.Directory_Controller.I.Fetch     22283660      0.00%      0.00% (Unspecified)
system.caches.Directory_Controller.M.Data       985022      0.00%      0.00% (Unspecified)
system.caches.Directory_Controller.M.CleanReplacement     21167566      0.00%      0.00% (Unspecified)
system.caches.Directory_Controller.IM.Memory_Data     22283659      0.00%      0.00% (Unspecified)
system.caches.Directory_Controller.MI.Memory_Ack       985022      0.00%      0.00% (Unspecified)
system.caches.L2Cache_Controller.L1_GET_INSTR |       16659      8.28%      8.28% |       30961     15.39%     23.66% |       27039     13.44%     37.10% |       14220      7.07%     44.17% |       22420     11.14%     55.31% |       27925     13.88%     69.19% |       31242     15.53%     84.71% |       30761     15.29%    100.00% (Unspecified)
system.caches.L2Cache_Controller.L1_GET_INSTR::total       201227                       (Unspecified)
system.caches.L2Cache_Controller.L1_GETS |    24837402     12.53%     12.53% |    24693255     12.45%     24.98% |    24214885     12.21%     37.19% |    24633619     12.42%     49.62% |    25875767     13.05%     62.67% |    24758318     12.49%     75.15% |    24900544     12.56%     87.71% |    24370003     12.29%    100.00% (Unspecified)
system.caches.L2Cache_Controller.L1_GETS::total    198283793                       (Unspecified)
system.caches.L2Cache_Controller.L1_GETX |       84097     12.19%     12.19% |       75761     10.98%     23.17% |       64357      9.33%     32.50% |      153846     22.30%     54.80% |       68018      9.86%     64.66% |       86589     12.55%     77.21% |       73849     10.70%     87.92% |       83345     12.08%    100.00% (Unspecified)
system.caches.L2Cache_Controller.L1_GETX::total       689862                       (Unspecified)
system.caches.L2Cache_Controller.L1_UPGRADE |         252      0.21%      0.21% |       56467     46.15%     46.36% |         128      0.10%     46.46% |         173      0.14%     46.60% |         221      0.18%     46.78% |       54805     44.79%     91.58% |       10132      8.28%     99.86% |         173      0.14%    100.00% (Unspecified)
system.caches.L2Cache_Controller.L1_UPGRADE::total       122351                       (Unspecified)
system.caches.L2Cache_Controller.L1_PUTX |     5170031     12.49%     12.49% |     5165981     12.48%     24.97% |     5156508     12.46%     37.42% |     5176520     12.50%     49.93% |     5208186     12.58%     62.51% |     5207179     12.58%     75.08% |     5169980     12.49%     87.57% |     5144907     12.43%    100.00% (Unspecified)
system.caches.L2Cache_Controller.L1_PUTX::total     41399292                       (Unspecified)
system.caches.L2Cache_Controller.L2_Replacement |      123411     12.53%     12.53% |      123297     12.52%     25.05% |      122830     12.47%     37.52% |      122950     12.48%     50.00% |      122878     12.48%     62.47% |      123367     12.52%     75.00% |      123035     12.49%     87.49% |      123223     12.51%    100.00% (Unspecified)
system.caches.L2Cache_Controller.L2_Replacement::total       984991                       (Unspecified)
system.caches.L2Cache_Controller.L2_Replacement_clean |     2643058     12.49%     12.49% |     2648252     12.51%     25.00% |     2643820     12.49%     37.49% |     2644605     12.49%     49.98% |     2643110     12.49%     62.47% |     2647297     12.51%     74.97% |     2646177     12.50%     87.47% |     2651278     12.53%    100.00% (Unspecified)
system.caches.L2Cache_Controller.L2_Replacement_clean::total     21167597                       (Unspecified)
system.caches.L2Cache_Controller.Mem_Data |     2782853     12.49%     12.49% |     2787933     12.51%     25.00% |     2783034     12.49%     37.49% |     2783939     12.49%     49.98% |     2782372     12.49%     62.47% |     2787047     12.51%     74.98% |     2785596     12.50%     87.48% |     2790885     12.52%    100.00% (Unspecified)
system.caches.L2Cache_Controller.Mem_Data::total     22283659                       (Unspecified)
system.caches.L2Cache_Controller.Mem_Ack |     2766469     12.49%     12.49% |     2771549     12.51%     25.00% |     2766650     12.49%     37.49% |     2767555     12.49%     49.98% |     2765988     12.49%     62.47% |     2770664     12.51%     74.97% |     2769212     12.50%     87.48% |     2774501     12.52%    100.00% (Unspecified)
system.caches.L2Cache_Controller.Mem_Ack::total     22152588                       (Unspecified)
system.caches.L2Cache_Controller.WB_Data |        3312      2.74%      2.74% |       54616     45.18%     47.92% |         283      0.23%     48.16% |         242      0.20%     48.36% |         311      0.26%     48.62% |       53546     44.30%     92.91% |        8203      6.79%     99.70% |         362      0.30%    100.00% (Unspecified)
system.caches.L2Cache_Controller.WB_Data::total       120875                       (Unspecified)
system.caches.L2Cache_Controller.WB_Data_clean |      174627     11.92%     11.92% |      175235     11.96%     23.88% |      173374     11.83%     35.71% |      172896     11.80%     47.51% |      168698     11.51%     59.02% |      172966     11.80%     70.83% |      171876     11.73%     82.56% |      255561     17.44%    100.00% (Unspecified)
system.caches.L2Cache_Controller.WB_Data_clean::total      1465233                       (Unspecified)
system.caches.L2Cache_Controller.Ack     |      159976     11.91%     11.91% |      159692     11.89%     23.79% |      158180     11.77%     35.57% |      156861     11.67%     47.24% |      153712     11.44%     58.68% |      158063     11.76%     70.44% |      157032     11.69%     82.13% |      240067     17.87%    100.00% (Unspecified)
system.caches.L2Cache_Controller.Ack::total      1343583                       (Unspecified)
system.caches.L2Cache_Controller.Ack_all |      162960     11.94%     11.94% |      162769     11.92%     23.86% |      160876     11.78%     35.64% |      159584     11.69%     47.33% |      156102     11.43%     58.77% |      160404     11.75%     70.52% |      159263     11.67%     82.18% |      243266     17.82%    100.00% (Unspecified)
system.caches.L2Cache_Controller.Ack_all::total      1365224                       (Unspecified)
system.caches.L2Cache_Controller.Unblock |      177808     11.21%     11.21% |      229682     14.48%     25.70% |      173654     10.95%     36.65% |      173137     10.92%     47.57% |      169004     10.66%     58.22% |      226496     14.28%     72.51% |      180072     11.36%     83.86% |      255884     16.14%    100.00% (Unspecified)
system.caches.L2Cache_Controller.Unblock::total      1585737                       (Unspecified)
system.caches.L2Cache_Controller.Exclusive_Unblock |     5349748     12.42%     12.42% |     5397834     12.53%     24.95% |     5331138     12.38%     37.33% |     5432278     12.61%     49.94% |     5378018     12.48%     62.42% |     5435641     12.62%     75.04% |     5350916     12.42%     87.46% |     5401694     12.54%    100.00% (Unspecified)
system.caches.L2Cache_Controller.Exclusive_Unblock::total     43077267                       (Unspecified)
system.caches.L2Cache_Controller.NP.L1_GET_INSTR |        8771     13.33%     13.33% |        9114     13.86%     27.19% |        7838     11.92%     39.11% |        7362     11.19%     50.30% |        8346     12.69%     62.99% |        8234     12.52%     75.50% |        7893     12.00%     87.50% |        8220     12.50%    100.00% (Unspecified)
system.caches.L2Cache_Controller.NP.L1_GET_INSTR::total        65778                       (Unspecified)
system.caches.L2Cache_Controller.NP.L1_GETS |     2735795     12.48%     12.48% |     2740501     12.51%     24.99% |     2737284     12.49%     37.48% |     2738396     12.50%     49.98% |     2736315     12.49%     62.47% |     2740493     12.51%     74.97% |     2739638     12.50%     87.48% |     2744544     12.52%    100.00% (Unspecified)
system.caches.L2Cache_Controller.NP.L1_GETS::total     21912966                       (Unspecified)
system.caches.L2Cache_Controller.NP.L1_GETX |       38287     12.56%     12.56% |       38318     12.57%     25.12% |       37912     12.43%     37.56% |       38181     12.52%     50.08% |       37711     12.37%     62.45% |       38321     12.57%     75.01% |       38065     12.48%     87.50% |       38121     12.50%    100.00% (Unspecified)
system.caches.L2Cache_Controller.NP.L1_GETX::total       304916                       (Unspecified)
system.caches.L2Cache_Controller.SS.L1_GET_INSTR |        4857      4.21%      4.21% |       18802     16.31%     20.53% |       16908     14.67%     35.20% |        4356      3.78%     38.98% |       11437      9.92%     48.90% |       17361     15.06%     63.97% |       21139     18.34%     82.31% |       20392     17.69%    100.00% (Unspecified)
system.caches.L2Cache_Controller.SS.L1_GET_INSTR::total       115252                       (Unspecified)
system.caches.L2Cache_Controller.SS.L1_GETS |    19393465     12.56%     12.56% |    19195621     12.43%     24.99% |    18774274     12.16%     37.15% |    19181956     12.42%     49.57% |    20396695     13.21%     62.78% |    19235313     12.46%     75.24% |    19444776     12.59%     87.83% |    18794679     12.17%    100.00% (Unspecified)
system.caches.L2Cache_Controller.SS.L1_GETS::total    154416779                       (Unspecified)
system.caches.L2Cache_Controller.SS.L1_GETX |       18133     14.15%     14.15% |       15608     12.18%     26.32% |       15269     11.91%     38.23% |       15354     11.98%     50.21% |       15675     12.23%     62.44% |       15533     12.12%     74.56% |       17147     13.38%     87.93% |       15469     12.07%    100.00% (Unspecified)
system.caches.L2Cache_Controller.SS.L1_GETX::total       128188                       (Unspecified)
system.caches.L2Cache_Controller.SS.L1_UPGRADE |         250      0.21%      0.21% |       55416     47.64%     47.85% |         128      0.11%     47.96% |         173      0.15%     48.11% |         221      0.19%     48.30% |       53747     46.20%     94.51% |        6217      5.34%     99.85% |         173      0.15%    100.00% (Unspecified)
system.caches.L2Cache_Controller.SS.L1_UPGRADE::total       116325                       (Unspecified)
system.caches.L2Cache_Controller.SS.L1_PUTX |           3      9.09%      9.09% |           3      9.09%     18.18% |           7     21.21%     39.39% |           2      6.06%     45.45% |           3      9.09%     54.55% |           2      6.06%     60.61% |           6     18.18%     78.79% |           7     21.21%    100.00% (Unspecified)
system.caches.L2Cache_Controller.SS.L1_PUTX::total           33                       (Unspecified)
system.caches.L2Cache_Controller.SS.L2_Replacement |       15156     12.73%     12.73% |       14861     12.48%     25.21% |       14918     12.53%     37.73% |       14745     12.38%     50.11% |       14524     12.20%     62.31% |       14844     12.46%     74.77% |       15155     12.73%     87.50% |       14885     12.50%    100.00% (Unspecified)
system.caches.L2Cache_Controller.SS.L2_Replacement::total       119088                       (Unspecified)
system.caches.L2Cache_Controller.SS.L2_Replacement_clean |      147652     11.86%     11.86% |      147775     11.87%     23.73% |      145722     11.70%     35.43% |      144769     11.63%     47.06% |      141481     11.36%     58.42% |      145464     11.68%     70.10% |      144019     11.57%     81.67% |      228281     18.33%    100.00% (Unspecified)
system.caches.L2Cache_Controller.SS.L2_Replacement_clean::total      1245163                       (Unspecified)
system.caches.L2Cache_Controller.M.L1_GETS |     2529951     12.43%     12.43% |     2526803     12.41%     24.84% |     2529518     12.42%     37.26% |     2539994     12.47%     49.73% |     2573604     12.64%     62.37% |     2555402     12.55%     74.92% |     2531334     12.43%     87.36% |     2574254     12.64%    100.00% (Unspecified)
system.caches.L2Cache_Controller.M.L1_GETS::total     20360860                       (Unspecified)
system.caches.L2Cache_Controller.M.L1_GETX |       26788     15.63%     15.63% |       20551     11.99%     27.62% |       11153      6.51%     34.13% |       18464     10.77%     44.90% |       14619      8.53%     53.43% |       31489     18.37%     71.81% |       18612     10.86%     82.67% |       29705     17.33%    100.00% (Unspecified)
system.caches.L2Cache_Controller.M.L1_GETX::total       171381                       (Unspecified)
system.caches.L2Cache_Controller.M.L2_Replacement |      108115     12.49%     12.49% |      108269     12.51%     25.00% |      107908     12.47%     37.47% |      108193     12.50%     49.97% |      108351     12.52%     62.49% |      108504     12.54%     75.02% |      107866     12.46%     87.49% |      108294     12.51%    100.00% (Unspecified)
system.caches.L2Cache_Controller.M.L2_Replacement::total       865500                       (Unspecified)
system.caches.L2Cache_Controller.M.L2_Replacement_clean |     2495263     12.53%     12.53% |     2500342     12.55%     25.08% |     2497863     12.54%     37.61% |     2499777     12.55%     50.16% |     2501530     12.56%     62.72% |     2501740     12.56%     75.28% |     2502076     12.56%     87.84% |     2422902     12.16%    100.00% (Unspecified)
system.caches.L2Cache_Controller.M.L2_Replacement_clean::total     19921493                       (Unspecified)
system.caches.L2Cache_Controller.MT.L1_GETS |      177808     11.21%     11.21% |      229682     14.48%     25.70% |      173654     10.95%     36.65% |      173137     10.92%     47.57% |      169004     10.66%     58.22% |      226496     14.28%     72.51% |      180072     11.36%     83.86% |      255884     16.14%    100.00% (Unspecified)
system.caches.L2Cache_Controller.MT.L1_GETS::total      1585737                       (Unspecified)
system.caches.L2Cache_Controller.MT.L1_GETX |         885      1.04%      1.04% |        1134      1.33%      2.37% |          22      0.03%      2.40% |       81842     96.20%     98.60% |          11      0.01%     98.61% |        1115      1.31%     99.92% |          20      0.02%     99.95% |          46      0.05%    100.00% (Unspecified)
system.caches.L2Cache_Controller.MT.L1_GETX::total        85075                       (Unspecified)
system.caches.L2Cache_Controller.MT.L1_PUTX |     5170025     12.49%     12.49% |     5165975     12.48%     24.97% |     5156494     12.46%     37.42% |     5176516     12.50%     49.93% |     5208180     12.58%     62.51% |     5207175     12.58%     75.08% |     5169968     12.49%     87.57% |     5144893     12.43%    100.00% (Unspecified)
system.caches.L2Cache_Controller.MT.L1_PUTX::total     41399226                       (Unspecified)
system.caches.L2Cache_Controller.MT.L2_Replacement |         140     34.74%     34.74% |         167     41.44%     76.18% |           4      0.99%     77.17% |          12      2.98%     80.15% |           3      0.74%     80.89% |          19      4.71%     85.61% |          14      3.47%     89.08% |          44     10.92%    100.00% (Unspecified)
system.caches.L2Cache_Controller.MT.L2_Replacement::total          403                       (Unspecified)
system.caches.L2Cache_Controller.MT.L2_Replacement_clean |         143     15.20%     15.20% |         135     14.35%     29.54% |         235     24.97%     54.52% |          59      6.27%     60.79% |          99     10.52%     71.31% |          93      9.88%     81.19% |          82      8.71%     89.90% |          95     10.10%    100.00% (Unspecified)
system.caches.L2Cache_Controller.MT.L2_Replacement_clean::total          941                       (Unspecified)
system.caches.L2Cache_Controller.M_I.L1_GET_INSTR |           1      0.92%      0.92% |           4      3.67%      4.59% |           5      4.59%      9.17% |          96     88.07%     97.25% |           1      0.92%     98.17% |           1      0.92%     99.08% |           1      0.92%    100.00% |           0      0.00%    100.00% (Unspecified)
system.caches.L2Cache_Controller.M_I.L1_GET_INSTR::total          109                       (Unspecified)
system.caches.L2Cache_Controller.M_I.L1_GETS |          29     58.00%     58.00% |           4      8.00%     66.00% |           2      4.00%     70.00% |           3      6.00%     76.00% |           1      2.00%     78.00% |           7     14.00%     92.00% |           1      2.00%     94.00% |           3      6.00%    100.00% (Unspecified)
system.caches.L2Cache_Controller.M_I.L1_GETS::total           50                       (Unspecified)
system.caches.L2Cache_Controller.M_I.L1_GETX |           2      9.09%      9.09% |           3     13.64%     22.73% |           0      0.00%     22.73% |           0      0.00%     22.73% |           1      4.55%     27.27% |          11     50.00%     77.27% |           3     13.64%     90.91% |           2      9.09%    100.00% (Unspecified)
system.caches.L2Cache_Controller.M_I.L1_GETX::total           22                       (Unspecified)
system.caches.L2Cache_Controller.M_I.Mem_Ack |     2766469     12.49%     12.49% |     2771549     12.51%     25.00% |     2766650     12.49%     37.49% |     2767555     12.49%     49.98% |     2765988     12.49%     62.47% |     2770664     12.51%     74.97% |     2769212     12.50%     87.48% |     2774501     12.52%    100.00% (Unspecified)
system.caches.L2Cache_Controller.M_I.Mem_Ack::total     22152588                       (Unspecified)
system.caches.L2Cache_Controller.MT_I.WB_Data |         123     36.18%     36.18% |         161     47.35%     83.53% |           0      0.00%     83.53% |           0      0.00%     83.53% |           3      0.88%     84.41% |          12      3.53%     87.94% |           5      1.47%     89.41% |          36     10.59%    100.00% (Unspecified)
system.caches.L2Cache_Controller.MT_I.WB_Data::total          340                       (Unspecified)
system.caches.L2Cache_Controller.MT_I.Ack_all |          17     26.98%     26.98% |           6      9.52%     36.51% |           4      6.35%     42.86% |          12     19.05%     61.90% |           0      0.00%     61.90% |           7     11.11%     73.02% |           9     14.29%     87.30% |           8     12.70%    100.00% (Unspecified)
system.caches.L2Cache_Controller.MT_I.Ack_all::total           63                       (Unspecified)
system.caches.L2Cache_Controller.MCT_I.WB_Data |           8     25.81%     25.81% |           8     25.81%     51.61% |           3      9.68%     61.29% |           1      3.23%     64.52% |           2      6.45%     70.97% |           4     12.90%     83.87% |           2      6.45%     90.32% |           3      9.68%    100.00% (Unspecified)
system.caches.L2Cache_Controller.MCT_I.WB_Data::total           31                       (Unspecified)
system.caches.L2Cache_Controller.MCT_I.Ack_all |         135     14.84%     14.84% |         127     13.96%     28.79% |         232     25.49%     54.29% |          58      6.37%     60.66% |          97     10.66%     71.32% |          89      9.78%     81.10% |          80      8.79%     89.89% |          92     10.11%    100.00% (Unspecified)
system.caches.L2Cache_Controller.MCT_I.Ack_all::total          910                       (Unspecified)
system.caches.L2Cache_Controller.I_I.L1_GETS |           0      0.00%      0.00% |           0      0.00%      0.00% |           1     50.00%     50.00% |           0      0.00%     50.00% |           0      0.00%     50.00% |           0      0.00%     50.00% |           1     50.00%    100.00% |           0      0.00%    100.00% (Unspecified)
system.caches.L2Cache_Controller.I_I.L1_GETS::total            2                       (Unspecified)
system.caches.L2Cache_Controller.I_I.Ack |      144820     11.83%     11.83% |      144831     11.83%     23.65% |      143262     11.70%     35.35% |      142116     11.61%     46.96% |      139188     11.37%     58.33% |      143219     11.70%     70.02% |      141877     11.59%     81.61% |      225182     18.39%    100.00% (Unspecified)
system.caches.L2Cache_Controller.I_I.Ack::total      1224495                       (Unspecified)
system.caches.L2Cache_Controller.I_I.Ack_all |      147652     11.86%     11.86% |      147775     11.87%     23.73% |      145722     11.70%     35.43% |      144769     11.63%     47.06% |      141481     11.36%     58.42% |      145464     11.68%     70.10% |      144019     11.57%     81.67% |      228281     18.33%    100.00% (Unspecified)
system.caches.L2Cache_Controller.I_I.Ack_all::total      1245163                       (Unspecified)
system.caches.L2Cache_Controller.S_I.Ack |       15156     12.73%     12.73% |       14861     12.48%     25.21% |       14918     12.53%     37.73% |       14745     12.38%     50.11% |       14524     12.20%     62.31% |       14844     12.46%     74.77% |       15155     12.73%     87.50% |       14885     12.50%    100.00% (Unspecified)
system.caches.L2Cache_Controller.S_I.Ack::total       119088                       (Unspecified)
system.caches.L2Cache_Controller.S_I.Ack_all |       15156     12.73%     12.73% |       14861     12.48%     25.21% |       14918     12.53%     37.73% |       14745     12.38%     50.11% |       14524     12.20%     62.31% |       14844     12.46%     74.77% |       15155     12.73%     87.50% |       14885     12.50%    100.00% (Unspecified)
system.caches.L2Cache_Controller.S_I.Ack_all::total       119088                       (Unspecified)
system.caches.L2Cache_Controller.ISS.L1_GETS |         341     13.96%     13.96% |         497     20.34%     34.30% |         148      6.06%     40.36% |         126      5.16%     45.52% |         138      5.65%     51.17% |         458     18.75%     69.91% |         117      4.79%     74.70% |         618     25.30%    100.00% (Unspecified)
system.caches.L2Cache_Controller.ISS.L1_GETS::total         2443                       (Unspecified)
system.caches.L2Cache_Controller.ISS.L1_GETX |           1    100.00%    100.00% |           0      0.00%    100.00% |           0      0.00%    100.00% |           0      0.00%    100.00% |           0      0.00%    100.00% |           0      0.00%    100.00% |           0      0.00%    100.00% |           0      0.00%    100.00% (Unspecified)
system.caches.L2Cache_Controller.ISS.L1_GETX::total            1                       (Unspecified)
system.caches.L2Cache_Controller.ISS.Mem_Data |     2735454     12.48%     12.48% |     2740004     12.51%     24.99% |     2737136     12.49%     37.48% |     2738270     12.50%     49.98% |     2736177     12.49%     62.47% |     2740034     12.51%     74.97% |     2739521     12.50%     87.48% |     2743926     12.52%    100.00% (Unspecified)
system.caches.L2Cache_Controller.ISS.Mem_Data::total     21910522                       (Unspecified)
system.caches.L2Cache_Controller.IS.L1_GET_INSTR |        3030     15.08%     15.08% |        3041     15.14%     30.22% |        2288     11.39%     41.61% |        2406     11.98%     53.59% |        2636     13.12%     66.71% |        2329     11.59%     78.31% |        2209     11.00%     89.30% |        2149     10.70%    100.00% (Unspecified)
system.caches.L2Cache_Controller.IS.L1_GET_INSTR::total        20088                       (Unspecified)
system.caches.L2Cache_Controller.IS.Mem_Data |        9112     13.36%     13.36% |        9611     14.09%     27.44% |        7986     11.71%     39.15% |        7488     10.98%     50.13% |        8484     12.44%     62.56% |        8692     12.74%     75.30% |        8010     11.74%     87.05% |        8838     12.95%    100.00% (Unspecified)
system.caches.L2Cache_Controller.IS.Mem_Data::total        68221                       (Unspecified)
system.caches.L2Cache_Controller.IM.L1_GETS |           0      0.00%      0.00% |           0      0.00%      0.00% |           0      0.00%      0.00% |           0      0.00%      0.00% |           0      0.00%      0.00% |           0      0.00%      0.00% |           1    100.00%    100.00% |           0      0.00%    100.00% (Unspecified)
system.caches.L2Cache_Controller.IM.L1_GETS::total            1                       (Unspecified)
system.caches.L2Cache_Controller.IM.L1_GETX |           1      7.69%      7.69% |           4     30.77%     38.46% |           1      7.69%     46.15% |           1      7.69%     53.85% |           1      7.69%     61.54% |           1      7.69%     69.23% |           2     15.38%     84.62% |           2     15.38%    100.00% (Unspecified)
system.caches.L2Cache_Controller.IM.L1_GETX::total           13                       (Unspecified)
system.caches.L2Cache_Controller.IM.Mem_Data |       38287     12.56%     12.56% |       38318     12.57%     25.12% |       37912     12.43%     37.56% |       38181     12.52%     50.08% |       37711     12.37%     62.45% |       38321     12.57%     75.01% |       38065     12.48%     87.50% |       38121     12.50%    100.00% (Unspecified)
system.caches.L2Cache_Controller.IM.Mem_Data::total       304916                       (Unspecified)
system.caches.L2Cache_Controller.SS_MB.L1_GETS |           0      0.00%      0.00% |         131      2.69%      2.69% |           0      0.00%      2.69% |           2      0.04%      2.73% |           0      0.00%      2.73% |         132      2.71%      5.45% |        4598     94.51%     99.96% |           2      0.04%    100.00% (Unspecified)
system.caches.L2Cache_Controller.SS_MB.L1_GETS::total         4865                       (Unspecified)
[...]
system.timingCpu0.exec_context.thread_0.statExecutedInstType::SimdSha1Hash2            0      0.00%     80.31% # Class of executed instruction. (Count)
system.timingCpu0.exec_context.thread_0.statExecutedInstType::SimdSha256Hash            0      0.00%     80.31% # Class of executed instruction. (Count)
system.timingCpu0.exec_context.thread_0.statExecutedInstType::SimdSha256Hash2            0      0.00%     80.31% # Class of executed instruction. (Count)
system.timingCpu0.exec_context.thread_0.statExecutedInstType::SimdShaSigma2            0      0.00%     80.31% # Class of executed instruction. (Count)
system.timingCpu0.exec_context.thread_0.statExecutedInstType::SimdShaSigma3            0      0.00%     80.31% # Class of executed instruction. (Count)
system.timingCpu0.exec_context.thread_0.statExecutedInstType::SimdPredAlu            0      0.00%     80.31% # Class of executed instruction. (Count)
system.timingCpu0.exec_context.thread_0.statExecutedInstType::MemRead    149401627     10.04%     90.35% # Class of executed instruction. (Count)
system.timingCpu0.exec_context.thread_0.statExecutedInstType::MemWrite      1446163      0.10%     90.45% # Class of executed instruction. (Count)
system.timingCpu0.exec_context.thread_0.statExecutedInstType::FloatMemRead    133836955      9.00%     99.44% # Class of executed instruction. (Count)
system.timingCpu0.exec_context.thread_0.statExecutedInstType::FloatMemWrite      8273479      0.56%    100.00% # Class of executed instruction. (Count)
system.timingCpu0.exec_context.thread_0.statExecutedInstType::IprAccess            0      0.00%    100.00% # Class of executed instruction. (Count)
system.timingCpu0.exec_context.thread_0.statExecutedInstType::InstPrefetch            0      0.00%    100.00% # Class of executed instruction. (Count)
system.timingCpu0.exec_context.thread_0.statExecutedInstType::total   1487804429                       # Class of executed instruction. (Count)
system.timingCpu0.mmu.dtb.rdAccesses        332126758                       # TLB accesses on read requests (Count)
system.timingCpu0.mmu.dtb.wrAccesses          9797101                       # TLB accesses on write requests (Count)
system.timingCpu0.mmu.dtb.rdMisses           40902490                       # TLB misses on read requests (Count)
system.timingCpu0.mmu.dtb.wrMisses              77484                       # TLB misses on write requests (Count)
system.timingCpu0.mmu.dtb.walker.power_state.pwrStateResidencyTicks::UNDEFINED 153716686228251                       # Cumulative time (in ticks) in various power states (Tick)
system.timingCpu0.mmu.itb.rdAccesses                0                       # TLB accesses on read requests (Count)
system.timingCpu0.mmu.itb.wrAccesses       1067340299                       # TLB accesses on write requests (Count)
system.timingCpu0.mmu.itb.rdMisses                  0                       # TLB misses on read requests (Count)
system.timingCpu0.mmu.itb.wrMisses               8919                       # TLB misses on write requests (Count)
system.timingCpu0.mmu.itb.walker.power_state.pwrStateResidencyTicks::UNDEFINED 153716686228251                       # Cumulative time (in ticks) in various power states (Tick)
system.timingCpu0.power_state.numTransitions            6                       # Number of power state transitions (Count)
system.timingCpu0.power_state.ticksClkGated::samples            3                       # Distribution of time spent in the clock gated state (Tick)
system.timingCpu0.power_state.ticksClkGated::mean    768260500                       # Distribution of time spent in the clock gated state (Tick)
system.timingCpu0.power_state.ticksClkGated::stdev 389027625.376801                       # Distribution of time spent in the clock gated state (Tick)
system.timingCpu0.power_state.ticksClkGated::1000-5e+10            3    100.00%    100.00% # Distribution of time spent in the clock gated state (Tick)
system.timingCpu0.power_state.ticksClkGated::min_value    319063250                       # Distribution of time spent in the clock gated state (Tick)
system.timingCpu0.power_state.ticksClkGated::max_value    995836750                       # Distribution of time spent in the clock gated state (Tick)
system.timingCpu0.power_state.ticksClkGated::total            3                       # Distribution of time spent in the clock gated state (Tick)
system.timingCpu0.power_state.pwrStateResidencyTicks::ON 1979700510001                       # Cumulative time (in ticks) in various power states (Tick)
system.timingCpu0.power_state.pwrStateResidencyTicks::CLK_GATED   2304781500                       # Cumulative time (in ticks) in various power states (Tick)
system.timingCpu0.power_state.pwrStateResidencyTicks::OFF 151734680936750                       # Cumulative time (in ticks) in various power states (Tick)
system.timingCpu0.thread_0.numInsts                 0                       # Number of Instructions committed (Count)
system.timingCpu0.thread_0.numOps                   0                       # Number of Ops committed (Count)
system.timingCpu0.thread_0.numMemRefs               0                       # Number of Memory References (Count)
system.timingCpu1.numCycles                7933684491                       # Number of cpu cycles simulated (Cycle)
system.timingCpu1.numWorkItemsStarted               0                       # Number of work items this cpu started (Count)
system.timingCpu1.numWorkItemsCompleted             0                       # Number of work items this cpu completed (Count)
system.timingCpu1.exec_context.thread_0.numInsts    753450774                       # Number of instructions committed (Count)
system.timingCpu1.exec_context.thread_0.numOps   1463685177                       # Number of ops (including micro ops) committed (Count)
system.timingCpu1.exec_context.thread_0.numIntAluAccesses   1267078872                       # Number of integer alu accesses (Count)
system.timingCpu1.exec_context.thread_0.numFpAluAccesses    339131829                       # Number of float alu accesses (Count)
system.timingCpu1.exec_context.thread_0.numVecAluAccesses            0                       # Number of vector alu accesses (Count)
system.timingCpu1.exec_context.thread_0.numCallsReturns       522729                       # Number of times a function call or return occured (Count)
system.timingCpu1.exec_context.thread_0.numCondCtrlInsts    139671196                       # Number of instructions that are conditional controls (Count)
system.timingCpu1.exec_context.thread_0.numIntInsts   1267078872                       # Number of integer instructions (Count)
system.timingCpu1.exec_context.thread_0.numFpInsts    339131829                       # Number of float instructions (Count)
system.timingCpu1.exec_context.thread_0.numVecInsts            0                       # Number of vector instructions (Count)
system.timingCpu1.exec_context.thread_0.numIntRegReads   1438807441                       # Number of times the integer registers were read (Count)
system.timingCpu1.exec_context.thread_0.numIntRegWrites    838118136                       # Number of times the integer registers were written (Count)
system.timingCpu1.exec_context.thread_0.numFpRegReads    510090538                       # Number of times the floating registers were read (Count)
system.timingCpu1.exec_context.thread_0.numFpRegWrites    330791961                       # Number of times the floating registers were written (Count)
system.timingCpu1.exec_context.thread_0.numVecRegReads            0                       # Number of times the vector registers were read (Count)
system.timingCpu1.exec_context.thread_0.numVecRegWrites            0                       # Number of times the vector registers were written (Count)
system.timingCpu1.exec_context.thread_0.numVecPredRegReads            0                       # Number of times the predicate registers were read (Count)
system.timingCpu1.exec_context.thread_0.numVecPredRegWrites            0                       # Number of times the predicate registers were written (Count)
system.timingCpu1.exec_context.thread_0.numCCRegReads    705193463                       # Number of times the CC registers were read (Count)
system.timingCpu1.exec_context.thread_0.numCCRegWrites    564414564                       # Number of times the CC registers were written (Count)
system.timingCpu1.exec_context.thread_0.numMiscRegReads    575173384                       # Number of times the Misc registers were read (Count)
system.timingCpu1.exec_context.thread_0.numMiscRegWrites        73607                       # Number of times the Misc registers were written (Count)
system.timingCpu1.exec_context.thread_0.numMemRefs    290837815                       # Number of memory refs (Count)
system.timingCpu1.exec_context.thread_0.numLoadInsts    281241371                       # Number of load instructions (Count)
system.timingCpu1.exec_context.thread_0.numStoreInsts      9596444                       # Number of store instructions (Count)
system.timingCpu1.exec_context.thread_0.numIdleCycles            0                       # Number of idle cycles (Cycle)
system.timingCpu1.exec_context.thread_0.numBusyCycles   7933684491                       # Number of busy cycles (Cycle)
system.timingCpu1.exec_context.thread_0.notIdleFraction            1                       # Percentage of non-idle cycles (Ratio)
system.timingCpu1.exec_context.thread_0.idleFraction            0                       # Percentage of idle cycles (Ratio)
system.timingCpu1.exec_context.thread_0.numBranches    142148656                       # Number of branches fetched (Count)
system.timingCpu1.exec_context.thread_0.statExecutedInstType::No_OpClass      2656312      0.18%      0.18% # Class of executed instruction. (Count)
system.timingCpu1.exec_context.thread_0.statExecutedInstType::IntAlu    973235274     66.49%     66.67% # Class of executed instruction. (Count)
system.timingCpu1.exec_context.thread_0.statExecutedInstType::IntMult        46583      0.00%     66.68% # Class of executed instruction. (Count)
system.timingCpu1.exec_context.thread_0.statExecutedInstType::IntDiv        88728      0.01%     66.68% # Class of executed instruction. (Count)
system.timingCpu1.exec_context.thread_0.statExecutedInstType::FloatAdd     16329726      1.12%     67.80% # Class of executed instruction. (Count)
system.timingCpu1.exec_context.thread_0.statExecutedInstType::FloatCmp            0      0.00%     67.80% # Class of executed instruction. (Count)
system.timingCpu1.exec_context.thread_0.statExecutedInstType::FloatCvt          112      0.00%     67.80% # Class of executed instruction. (Count)
system.timingCpu1.exec_context.thread_0.statExecutedInstType::FloatMult            0      0.00%     67.80% # Class of executed instruction. (Count)
system.timingCpu1.exec_context.thread_0.statExecutedInstType::FloatMultAcc            0      0.00%     67.80% # Class of executed instruction. (Count)
system.timingCpu1.exec_context.thread_0.statExecutedInstType::FloatDiv            0      0.00%     67.80% # Class of executed instruction. (Count)
system.timingCpu1.exec_context.thread_0.statExecutedInstType::FloatMisc            0      0.00%     67.80% # Class of executed instruction. (Count)
system.timingCpu1.exec_context.thread_0.statExecutedInstType::FloatSqrt            0      0.00%     67.80% # Class of executed instruction. (Count)
system.timingCpu1.exec_context.thread_0.statExecutedInstType::SimdAdd           18      0.00%     67.80% # Class of executed instruction. (Count)
system.timingCpu1.exec_context.thread_0.statExecutedInstType::SimdAddAcc            0      0.00%     67.80% # Class of executed instruction. (Count)
system.timingCpu1.exec_context.thread_0.statExecutedInstType::SimdAlu     24252282      1.66%     69.46% # Class of executed instruction. (Count)
system.timingCpu1.exec_context.thread_0.statExecutedInstType::SimdCmp         1132      0.00%     69.46% # Class of executed instruction. (Count)
system.timingCpu1.exec_context.thread_0.statExecutedInstType::SimdCvt        15508      0.00%     69.46% # Class of executed instruction. (Count)
system.timingCpu1.exec_context.thread_0.statExecutedInstType::SimdMisc      3784922      0.26%     69.72% # Class of executed instruction. (Count)
system.timingCpu1.exec_context.thread_0.statExecutedInstType::SimdMult            0      0.00%     69.72% # Class of executed instruction. (Count)
system.timingCpu1.exec_context.thread_0.statExecutedInstType::SimdMultAcc            0      0.00%     69.72% # Class of executed instruction. (Count)
system.timingCpu1.exec_context.thread_0.statExecutedInstType::SimdShift           16      0.00%     69.72% # Class of executed instruction. (Count)
system.timingCpu1.exec_context.thread_0.statExecutedInstType::SimdShiftAcc            0      0.00%     69.72% # Class of executed instruction. (Count)
system.timingCpu1.exec_context.thread_0.statExecutedInstType::SimdDiv            0      0.00%     69.72% # Class of executed instruction. (Count)
system.timingCpu1.exec_context.thread_0.statExecutedInstType::SimdSqrt            0      0.00%     69.72% # Class of executed instruction. (Count)
system.timingCpu1.exec_context.thread_0.statExecutedInstType::SimdFloatAdd    138174816      9.44%     79.16% # Class of executed instruction. (Count)
system.timingCpu1.exec_context.thread_0.statExecutedInstType::SimdFloatAlu            0      0.00%     79.16% # Class of executed instruction. (Count)
system.timingCpu1.exec_context.thread_0.statExecutedInstType::SimdFloatCmp            0      0.00%     79.16% # Class of executed instruction. (Count)
system.timingCpu1.exec_context.thread_0.statExecutedInstType::SimdFloatCvt      7934563      0.54%     79.70% # Class of executed instruction. (Count)
system.timingCpu1.exec_context.thread_0.statExecutedInstType::SimdFloatDiv      3753574      0.26%     79.95% # Class of executed instruction. (Count)
system.timingCpu1.exec_context.thread_0.statExecutedInstType::SimdFloatMisc            0      0.00%     79.95% # Class of executed instruction. (Count)
system.timingCpu1.exec_context.thread_0.statExecutedInstType::SimdFloatMult      2573848      0.18%     80.13% # Class of executed instruction. (Count)
system.timingCpu1.exec_context.thread_0.statExecutedInstType::SimdFloatMultAcc            0      0.00%     80.13% # Class of executed instruction. (Count)
system.timingCpu1.exec_context.thread_0.statExecutedInstType::SimdFloatSqrt            0      0.00%     80.13% # Class of executed instruction. (Count)
system.timingCpu1.exec_context.thread_0.statExecutedInstType::SimdReduceAdd            0      0.00%     80.13% # Class of executed instruction. (Count)
system.timingCpu1.exec_context.thread_0.statExecutedInstType::SimdReduceAlu            0      0.00%     80.13% # Class of executed instruction. (Count)
system.timingCpu1.exec_context.thread_0.statExecutedInstType::SimdReduceCmp            0      0.00%     80.13% # Class of executed instruction. (Count)
system.timingCpu1.exec_context.thread_0.statExecutedInstType::SimdFloatReduceAdd            0      0.00%     80.13% # Class of executed instruction. (Count)
system.timingCpu1.exec_context.thread_0.statExecutedInstType::SimdFloatReduceCmp            0      0.00%     80.13% # Class of executed instruction. (Count)
system.timingCpu1.exec_context.thread_0.statExecutedInstType::SimdAes            0      0.00%     80.13% # Class of executed instruction. (Count)
system.timingCpu1.exec_context.thread_0.statExecutedInstType::SimdAesMix            0      0.00%     80.13% # Class of executed instruction. (Count)
system.timingCpu1.exec_context.thread_0.statExecutedInstType::SimdSha1Hash            0      0.00%     80.13% # Class of executed instruction. (Count)
system.timingCpu1.exec_context.thread_0.statExecutedInstType::SimdSha1Hash2            0      0.00%     80.13% # Class of executed instruction. (Count)
system.timingCpu1.exec_context.thread_0.statExecutedInstType::SimdSha256Hash            0      0.00%     80.13% # Class of executed instruction. (Count)
system.timingCpu1.exec_context.thread_0.statExecutedInstType::SimdSha256Hash2            0      0.00%     80.13% # Class of executed instruction. (Count)
system.timingCpu1.exec_context.thread_0.statExecutedInstType::SimdShaSigma2            0      0.00%     80.13% # Class of executed instruction. (Count)
system.timingCpu1.exec_context.thread_0.statExecutedInstType::SimdShaSigma3            0      0.00%     80.13% # Class of executed instruction. (Count)
system.timingCpu1.exec_context.thread_0.statExecutedInstType::SimdPredAlu            0      0.00%     80.13% # Class of executed instruction. (Count)
system.timingCpu1.exec_context.thread_0.statExecutedInstType::MemRead    147270220     10.06%     90.19% # Class of executed instruction. (Count)
system.timingCpu1.exec_context.thread_0.statExecutedInstType::MemWrite      1265784      0.09%     90.28% # Class of executed instruction. (Count)
system.timingCpu1.exec_context.thread_0.statExecutedInstType::FloatMemRead    133971151      9.15%     99.43% # Class of executed instruction. (Count)
system.timingCpu1.exec_context.thread_0.statExecutedInstType::FloatMemWrite      8330660      0.57%    100.00% # Class of executed instruction. (Count)
system.timingCpu1.exec_context.thread_0.statExecutedInstType::IprAccess            0      0.00%    100.00% # Class of executed instruction. (Count)
system.timingCpu1.exec_context.thread_0.statExecutedInstType::InstPrefetch            0      0.00%    100.00% # Class of executed instruction. (Count)
system.timingCpu1.exec_context.thread_0.statExecutedInstType::total   1463685229                       # Class of executed instruction. (Count)
system.timingCpu1.mmu.dtb.rdAccesses        329746596                       # TLB accesses on read requests (Count)
system.timingCpu1.mmu.dtb.wrAccesses          9665951                       # TLB accesses on write requests (Count)
system.timingCpu1.mmu.dtb.rdMisses           40524765                       # TLB misses on read requests (Count)
system.timingCpu1.mmu.dtb.wrMisses              69894                       # TLB misses on write requests (Count)
system.timingCpu1.mmu.dtb.walker.power_state.pwrStateResidencyTicks::UNDEFINED 153716686228251                       # Cumulative time (in ticks) in various power states (Tick)
system.timingCpu1.mmu.itb.rdAccesses                0                       # TLB accesses on read requests (Count)
system.timingCpu1.mmu.itb.wrAccesses       1052403135                       # TLB accesses on write requests (Count)
system.timingCpu1.mmu.itb.rdMisses                  0                       # TLB misses on read requests (Count)
system.timingCpu1.mmu.itb.wrMisses               8963                       # TLB misses on write requests (Count)
system.timingCpu1.mmu.itb.walker.power_state.pwrStateResidencyTicks::UNDEFINED 153716686228251                       # Cumulative time (in ticks) in various power states (Tick)
system.timingCpu1.power_state.pwrStateResidencyTicks::OFF 153716686228251                       # Cumulative time (in ticks) in various power states (Tick)
system.timingCpu1.thread_0.numInsts                 0                       # Number of Instructions committed (Count)
system.timingCpu1.thread_0.numOps                   0                       # Number of Ops committed (Count)
system.timingCpu1.thread_0.numMemRefs               0                       # Number of Memory References (Count)
system.workload.inst.arm                            0                       # number of arm instructions executed (Count)
system.workload.inst.quiesce                        0                       # number of quiesce instructions executed (Count)

---------- End Simulation Statistics   ----------
