
---------- Begin Simulation Statistics ----------
simSeconds                                   1.275003                       # Number of seconds simulated (Second)
simTicks                                 1275002626001                       # Number of ticks simulated (Tick)
finalTick                                172874326112501                       # Number of ticks from beginning of simulation (restored from checkpoints and never reset) (Tick)
simFreq                                  1000000000000                       # The number of ticks per simulated second ((Tick/Second))
hostSeconds                                   5507.94                       # Real time elapsed on the host (Second)
hostTickRate                                231484596                       # The number of ticks simulated per host second (ticks/s) ((Tick/Second))
hostMemory                                    7884004                       # Number of bytes of host memory used (Byte)
simInsts                                  39453649240                       # Number of instructions simulated (Count)
simOps                                    40164891860                       # Number of ops (including micro ops) simulated (Count)
hostInstRate                                  7163053                       # Simulator instruction rate (inst/s) ((Count/Second))
hostOpRate                                    7292184                       # Simulator op (including micro ops) rate (op/s) ((Count/Second))
system.work_item_type0::samples                     1                       # Run time stat forwork_item_type0 (Unspecified)
system.work_item_type0::mean             1275002626001                       # Run time stat forwork_item_type0 (Unspecified)
system.work_item_type0::gmean            1275002626001.000244                       # Run time stat forwork_item_type0 (Unspecified)
system.work_item_type0::stdev                     nan                       # Run time stat forwork_item_type0 (Unspecified)
system.work_item_type0::0-6.87195e+10               0      0.00%      0.00% # Run time stat forwork_item_type0 (Unspecified)
system.work_item_type0::6.87195e+10-1.37439e+11            0      0.00%      0.00% # Run time stat forwork_item_type0 (Unspecified)
system.work_item_type0::1.37439e+11-2.06158e+11            0      0.00%      0.00% # Run time stat forwork_item_type0 (Unspecified)
system.work_item_type0::2.06158e+11-2.74878e+11            0      0.00%      0.00% # Run time stat forwork_item_type0 (Unspecified)
system.work_item_type0::2.74878e+11-3.43597e+11            0      0.00%      0.00% # Run time stat forwork_item_type0 (Unspecified)
system.work_item_type0::3.43597e+11-4.12317e+11            0      0.00%      0.00% # Run time stat forwork_item_type0 (Unspecified)
system.work_item_type0::4.12317e+11-4.81036e+11            0      0.00%      0.00% # Run time stat forwork_item_type0 (Unspecified)
system.work_item_type0::4.81036e+11-5.49756e+11            0      0.00%      0.00% # Run time stat forwork_item_type0 (Unspecified)
system.work_item_type0::5.49756e+11-6.18475e+11            0      0.00%      0.00% # Run time stat forwork_item_type0 (Unspecified)
system.work_item_type0::6.18475e+11-6.87195e+11            0      0.00%      0.00% # Run time stat forwork_item_type0 (Unspecified)
system.work_item_type0::6.87195e+11-7.55914e+11            0      0.00%      0.00% # Run time stat forwork_item_type0 (Unspecified)
system.work_item_type0::7.55914e+11-8.24634e+11            0      0.00%      0.00% # Run time stat forwork_item_type0 (Unspecified)
system.work_item_type0::8.24634e+11-8.93353e+11            0      0.00%      0.00% # Run time stat forwork_item_type0 (Unspecified)
system.work_item_type0::8.93353e+11-9.62073e+11            0      0.00%      0.00% # Run time stat forwork_item_type0 (Unspecified)
system.work_item_type0::9.62073e+11-1.03079e+12            0      0.00%      0.00% # Run time stat forwork_item_type0 (Unspecified)
system.work_item_type0::1.03079e+12-1.09951e+12            0      0.00%      0.00% # Run time stat forwork_item_type0 (Unspecified)
system.work_item_type0::1.09951e+12-1.16823e+12            0      0.00%      0.00% # Run time stat forwork_item_type0 (Unspecified)
system.work_item_type0::1.16823e+12-1.23695e+12            0      0.00%      0.00% # Run time stat forwork_item_type0 (Unspecified)
system.work_item_type0::1.23695e+12-1.30567e+12            1    100.00%    100.00% # Run time stat forwork_item_type0 (Unspecified)
system.work_item_type0::1.30567e+12-1.37439e+12            0      0.00%    100.00% # Run time stat forwork_item_type0 (Unspecified)
system.work_item_type0::total                       1                       # Run time stat forwork_item_type0 (Unspecified)
system.atomicCpu0.numCycles                         0                       # Number of cpu cycles simulated (Cycle)
system.atomicCpu0.numWorkItemsStarted               0                       # Number of work items this cpu started (Count)
system.atomicCpu0.numWorkItemsCompleted             0                       # Number of work items this cpu completed (Count)
system.atomicCpu0.exec_context.thread_0.numInsts            0                       # Number of instructions committed (Count)
system.atomicCpu0.exec_context.thread_0.numOps            0                       # Number of ops (including micro ops) committed (Count)
system.atomicCpu0.exec_context.thread_0.numIntAluAccesses            0                       # Number of integer alu accesses (Count)
system.atomicCpu0.exec_context.thread_0.numFpAluAccesses            0                       # Number of float alu accesses (Count)
system.atomicCpu0.exec_context.thread_0.numVecAluAccesses            0                       # Number of vector alu accesses (Count)
system.atomicCpu0.exec_context.thread_0.numCallsReturns            0                       # Number of times a function call or return occured (Count)
system.atomicCpu0.exec_context.thread_0.numCondCtrlInsts            0                       # Number of instructions that are conditional controls (Count)
system.atomicCpu0.exec_context.thread_0.numIntInsts            0                       # Number of integer instructions (Count)
system.atomicCpu0.exec_context.thread_0.numFpInsts            0                       # Number of float instructions (Count)
system.atomicCpu0.exec_context.thread_0.numVecInsts            0                       # Number of vector instructions (Count)
system.atomicCpu0.exec_context.thread_0.numIntRegReads            0                       # Number of times the integer registers were read (Count)
system.atomicCpu0.exec_context.thread_0.numIntRegWrites            0                       # Number of times the integer registers were written (Count)
system.atomicCpu0.exec_context.thread_0.numFpRegReads            0                       # Number of times the floating registers were read (Count)
system.atomicCpu0.exec_context.thread_0.numFpRegWrites            0                       # Number of times the floating registers were written (Count)
system.atomicCpu0.exec_context.thread_0.numVecRegReads            0                       # Number of times the vector registers were read (Count)
system.atomicCpu0.exec_context.thread_0.numVecRegWrites            0                       # Number of times the vector registers were written (Count)
system.atomicCpu0.exec_context.thread_0.numVecPredRegReads            0                       # Number of times the predicate registers were read (Count)
system.atomicCpu0.exec_context.thread_0.numVecPredRegWrites            0                       # Number of times the predicate registers were written (Count)
system.atomicCpu0.exec_context.thread_0.numMiscRegReads            0                       # Number of times the Misc registers were read (Count)
system.atomicCpu0.exec_context.thread_0.numMiscRegWrites            0                       # Number of times the Misc registers were written (Count)
system.atomicCpu0.exec_context.thread_0.numMemRefs            0                       # Number of memory refs (Count)
system.atomicCpu0.exec_context.thread_0.numLoadInsts            0                       # Number of load instructions (Count)
system.atomicCpu0.exec_context.thread_0.numStoreInsts            0                       # Number of store instructions (Count)
system.atomicCpu0.exec_context.thread_0.numIdleCycles            0                       # Number of idle cycles (Cycle)
system.atomicCpu0.exec_context.thread_0.numBusyCycles            0                       # Number of busy cycles (Cycle)
system.atomicCpu0.exec_context.thread_0.notIdleFraction            0                       # Percentage of non-idle cycles (Ratio)
system.atomicCpu0.exec_context.thread_0.idleFraction            1                       # Percentage of idle cycles (Ratio)
system.atomicCpu0.exec_context.thread_0.statExecutedInstType::No_OpClass            0                       # Class of executed instruction. (Count)
system.atomicCpu0.exec_context.thread_0.statExecutedInstType::IntAlu            0                       # Class of executed instruction. (Count)
system.atomicCpu0.exec_context.thread_0.statExecutedInstType::IntMult            0                       # Class of executed instruction. (Count)
system.atomicCpu0.exec_context.thread_0.statExecutedInstType::IntDiv            0                       # Class of executed instruction. (Count)
system.atomicCpu0.exec_context.thread_0.statExecutedInstType::FloatAdd            0                       # Class of executed instruction. (Count)
system.atomicCpu0.exec_context.thread_0.statExecutedInstType::FloatCmp            0                       # Class of executed instruction. (Count)
system.atomicCpu0.exec_context.thread_0.statExecutedInstType::FloatCvt            0                       # Class of executed instruction. (Count)
system.atomicCpu0.exec_context.thread_0.statExecutedInstType::FloatMult            0                       # Class of executed instruction. (Count)
system.atomicCpu0.exec_context.thread_0.statExecutedInstType::FloatMultAcc            0                       # Class of executed instruction. (Count)
system.atomicCpu0.exec_context.thread_0.statExecutedInstType::FloatDiv            0                       # Class of executed instruction. (Count)
system.atomicCpu0.exec_context.thread_0.statExecutedInstType::FloatMisc            0                       # Class of executed instruction. (Count)
system.atomicCpu0.exec_context.thread_0.statExecutedInstType::FloatSqrt            0                       # Class of executed instruction. (Count)
system.atomicCpu0.exec_context.thread_0.statExecutedInstType::SimdAdd            0                       # Class of executed instruction. (Count)
system.atomicCpu0.exec_context.thread_0.statExecutedInstType::SimdAddAcc            0                       # Class of executed instruction. (Count)
system.atomicCpu0.exec_context.thread_0.statExecutedInstType::SimdAlu            0                       # Class of executed instruction. (Count)
system.atomicCpu0.exec_context.thread_0.statExecutedInstType::SimdCmp            0                       # Class of executed instruction. (Count)
system.atomicCpu0.exec_context.thread_0.statExecutedInstType::SimdCvt            0                       # Class of executed instruction. (Count)
system.atomicCpu0.exec_context.thread_0.statExecutedInstType::SimdMisc            0                       # Class of executed instruction. (Count)
system.atomicCpu0.exec_context.thread_0.statExecutedInstType::SimdMult            0                       # Class of executed instruction. (Count)
system.atomicCpu0.exec_context.thread_0.statExecutedInstType::SimdMultAcc            0                       # Class of executed instruction. (Count)
system.atomicCpu0.exec_context.thread_0.statExecutedInstType::SimdShift            0                       # Class of executed instruction. (Count)
system.atomicCpu0.exec_context.thread_0.statExecutedInstType::SimdShiftAcc            0                       # Class of executed instruction. (Count)
system.atomicCpu0.exec_context.thread_0.statExecutedInstType::SimdDiv            0                       # Class of executed instruction. (Count)
system.atomicCpu0.exec_context.thread_0.statExecutedInstType::SimdSqrt            0                       # Class of executed instruction. (Count)
system.atomicCpu0.exec_context.thread_0.statExecutedInstType::SimdFloatAdd            0                       # Class of executed instruction. (Count)
system.atomicCpu0.exec_context.thread_0.statExecutedInstType::SimdFloatAlu            0                       # Class of executed instruction. (Count)
system.atomicCpu0.exec_context.thread_0.statExecutedInstType::SimdFloatCmp            0                       # Class of executed instruction. (Count)
system.atomicCpu0.exec_context.thread_0.statExecutedInstType::SimdFloatCvt            0                       # Class of executed instruction. (Count)
system.atomicCpu0.exec_context.thread_0.statExecutedInstType::SimdFloatDiv            0                       # Class of executed instruction. (Count)
system.atomicCpu0.exec_context.thread_0.statExecutedInstType::SimdFloatMisc            0                       # Class of executed instruction. (Count)
system.atomicCpu0.exec_context.thread_0.statExecutedInstType::SimdFloatMult            0                       # Class of executed instruction. (Count)
system.atomicCpu0.exec_context.thread_0.statExecutedInstType::SimdFloatMultAcc            0                       # Class of executed instruction. (Count)
system.atomicCpu0.exec_context.thread_0.statExecutedInstType::SimdFloatSqrt            0                       # Class of executed instruction. (Count)
system.atomicCpu0.exec_context.thread_0.statExecutedInstType::SimdReduceAdd            0                       # Class of executed instruction. (Count)
system.atomicCpu0.exec_context.thread_0.statExecutedInstType::SimdReduceAlu            0                       # Class of executed instruction. (Count)
system.atomicCpu0.exec_context.thread_0.statExecutedInstType::SimdReduceCmp            0                       # Class of executed instruction. (Count)
system.atomicCpu0.exec_context.thread_0.statExecutedInstType::SimdFloatReduceAdd            0                       # Class of executed instruction. (Count)
system.atomicCpu0.exec_context.thread_0.statExecutedInstType::SimdFloatReduceCmp            0                       # Class of executed instruction. (Count)
system.atomicCpu0.exec_context.thread_0.statExecutedInstType::SimdAes            0                       # Class of executed instruction. (Count)
system.atomicCpu0.exec_context.thread_0.statExecutedInstType::SimdAesMix            0                       # Class of executed instruction. (Count)
system.atomicCpu0.exec_context.thread_0.statExecutedInstType::SimdSha1Hash            0                       # Class of executed instruction. (Count)
system.atomicCpu0.exec_context.thread_0.statExecutedInstType::SimdSha1Hash2            0                       # Class of executed instruction. (Count)
system.atomicCpu0.exec_context.thread_0.statExecutedInstType::SimdSha256Hash            0                       # Class of executed instruction. (Count)
system.atomicCpu0.exec_context.thread_0.statExecutedInstType::SimdSha256Hash2            0                       # Class of executed instruction. (Count)
system.atomicCpu0.exec_context.thread_0.statExecutedInstType::SimdShaSigma2            0                       # Class of executed instruction. (Count)
system.atomicCpu0.exec_context.thread_0.statExecutedInstType::SimdShaSigma3            0                       # Class of executed instruction. (Count)
system.atomicCpu0.exec_context.thread_0.statExecutedInstType::SimdPredAlu            0                       # Class of executed instruction. (Count)
system.atomicCpu0.exec_context.thread_0.statExecutedInstType::MemRead            0                       # Class of executed instruction. (Count)
system.atomicCpu0.exec_context.thread_0.statExecutedInstType::MemWrite            0                       # Class of executed instruction. (Count)
system.atomicCpu0.exec_context.thread_0.statExecutedInstType::FloatMemRead            0                       # Class of executed instruction. (Count)
system.atomicCpu0.exec_context.thread_0.statExecutedInstType::FloatMemWrite            0                       # Class of executed instruction. (Count)
system.atomicCpu0.exec_context.thread_0.statExecutedInstType::IprAccess            0                       # Class of executed instruction. (Count)
system.atomicCpu0.exec_context.thread_0.statExecutedInstType::InstPrefetch            0                       # Class of executed instruction. (Count)
system.atomicCpu0.exec_context.thread_0.statExecutedInstType::total            0                       # Class of executed instruction. (Count)
system.atomicCpu0.mmu.dtb.rdAccesses                0                       # TLB accesses on read requests (Count)
system.atomicCpu0.mmu.dtb.wrAccesses                0                       # TLB accesses on write requests (Count)
system.atomicCpu0.mmu.dtb.rdMisses                  0                       # TLB misses on read requests (Count)
system.atomicCpu0.mmu.dtb.wrMisses                  0                       # TLB misses on write requests (Count)
system.atomicCpu0.mmu.dtb.walker.power_state.pwrStateResidencyTicks::UNDEFINED 172874326112501                       # Cumulative time (in ticks) in various power states (Tick)
system.atomicCpu0.mmu.itb.rdAccesses                0                       # TLB accesses on read requests (Count)
system.atomicCpu0.mmu.itb.wrAccesses                0                       # TLB accesses on write requests (Count)
system.atomicCpu0.mmu.itb.rdMisses                  0                       # TLB misses on read requests (Count)
system.atomicCpu0.mmu.itb.wrMisses                  0                       # TLB misses on write requests (Count)
system.atomicCpu0.mmu.itb.walker.power_state.pwrStateResidencyTicks::UNDEFINED 172874326112501                       # Cumulative time (in ticks) in various power states (Tick)
system.atomicCpu0.power_state.pwrStateResidencyTicks::OFF 172874326112501                       # Cumulative time (in ticks) in various power states (Tick)
system.atomicCpu0.thread_0.numInsts                 0                       # Number of Instructions committed (Count)
system.atomicCpu0.thread_0.numOps                   0                       # Number of Ops committed (Count)
system.atomicCpu0.thread_0.numMemRefs               0                       # Number of Memory References (Count)
system.atomicCpu1.numCycles                         0                       # Number of cpu cycles simulated (Cycle)
system.atomicCpu1.numWorkItemsStarted               0                       # Number of work items this cpu started (Count)
system.atomicCpu1.numWorkItemsCompleted             0                       # Number of work items this cpu completed (Count)
system.atomicCpu1.exec_context.thread_0.numInsts            0                       # Number of instructions committed (Count)
system.atomicCpu1.exec_context.thread_0.numOps            0                       # Number of ops (including micro ops) committed (Count)
system.atomicCpu1.exec_context.thread_0.numIntAluAccesses            0                       # Number of integer alu accesses (Count)
system.atomicCpu1.exec_context.thread_0.numFpAluAccesses            0                       # Number of float alu accesses (Count)
system.atomicCpu1.exec_context.thread_0.numVecAluAccesses            0                       # Number of vector alu accesses (Count)
system.atomicCpu1.exec_context.thread_0.numCallsReturns            0                       # Number of times a function call or return occured (Count)
system.atomicCpu1.exec_context.thread_0.numCondCtrlInsts            0                       # Number of instructions that are conditional controls (Count)
system.atomicCpu1.exec_context.thread_0.numIntInsts            0                       # Number of integer instructions (Count)
system.atomicCpu1.exec_context.thread_0.numFpInsts            0                       # Number of float instructions (Count)
system.atomicCpu1.exec_context.thread_0.numVecInsts            0                       # Number of vector instructions (Count)
system.atomicCpu1.exec_context.thread_0.numIntRegReads            0                       # Number of times the integer registers were read (Count)
system.atomicCpu1.exec_context.thread_0.numIntRegWrites            0                       # Number of times the integer registers were written (Count)
system.atomicCpu1.exec_context.thread_0.numFpRegReads            0                       # Number of times the floating registers were read (Count)
system.atomicCpu1.exec_context.thread_0.numFpRegWrites            0                       # Number of times the floating registers were written (Count)
system.atomicCpu1.exec_context.thread_0.numVecRegReads            0                       # Number of times the vector registers were read (Count)
system.atomicCpu1.exec_context.thread_0.numVecRegWrites            0                       # Number of times the vector registers were written (Count)
system.atomicCpu1.exec_context.thread_0.numVecPredRegReads            0                       # Number of times the predicate registers were read (Count)
system.atomicCpu1.exec_context.thread_0.numVecPredRegWrites            0                       # Number of times the predicate registers were written (Count)
system.atomicCpu1.exec_context.thread_0.numMiscRegReads            0                       # Number of times the Misc registers were read (Count)
system.atomicCpu1.exec_context.thread_0.numMiscRegWrites            0                       # Number of times the Misc registers were written (Count)
system.atomicCpu1.exec_context.thread_0.numMemRefs            0                       # Number of memory refs (Count)
system.atomicCpu1.exec_context.thread_0.numLoadInsts            0                       # Number of load instructions (Count)
system.atomicCpu1.exec_context.thread_0.numStoreInsts            0                       # Number of store instructions (Count)
system.atomicCpu1.exec_context.thread_0.numIdleCycles            0                       # Number of idle cycles (Cycle)
system.atomicCpu1.exec_context.thread_0.numBusyCycles            0                       # Number of busy cycles (Cycle)
system.atomicCpu1.exec_context.thread_0.notIdleFraction            0                       # Percentage of non-idle cycles (Ratio)
system.atomicCpu1.exec_context.thread_0.idleFraction            1                       # Percentage of idle cycles (Ratio)
system.atomicCpu1.exec_context.thread_0.statExecutedInstType::No_OpClass            0                       # Class of executed instruction. (Count)
system.atomicCpu1.exec_context.thread_0.statExecutedInstType::IntAlu            0                       # Class of executed instruction. (Count)
system.atomicCpu1.exec_context.thread_0.statExecutedInstType::IntMult            0                       # Class of executed instruction. (Count)
system.atomicCpu1.exec_context.thread_0.statExecutedInstType::IntDiv            0                       # Class of executed instruction. (Count)
system.atomicCpu1.exec_context.thread_0.statExecutedInstType::FloatAdd            0                       # Class of executed instruction. (Count)
system.atomicCpu1.exec_context.thread_0.statExecutedInstType::FloatCmp            0                       # Class of executed instruction. (Count)
system.atomicCpu1.exec_context.thread_0.statExecutedInstType::FloatCvt            0                       # Class of executed instruction. (Count)
system.atomicCpu1.exec_context.thread_0.statExecutedInstType::FloatMult            0                       # Class of executed instruction. (Count)
system.atomicCpu1.exec_context.thread_0.statExecutedInstType::FloatMultAcc            0                       # Class of executed instruction. (Count)
system.atomicCpu1.exec_context.thread_0.statExecutedInstType::FloatDiv            0                       # Class of executed instruction. (Count)
system.atomicCpu1.exec_context.thread_0.statExecutedInstType::FloatMisc            0                       # Class of executed instruction. (Count)
system.atomicCpu1.exec_context.thread_0.statExecutedInstType::FloatSqrt            0                       # Class of executed instruction. (Count)
system.atomicCpu1.exec_context.thread_0.statExecutedInstType::SimdAdd            0                       # Class of executed instruction. (Count)
system.atomicCpu1.exec_context.thread_0.statExecutedInstType::SimdAddAcc            0                       # Class of executed instruction. (Count)
system.atomicCpu1.exec_context.thread_0.statExecutedInstType::SimdAlu            0                       # Class of executed instruction. (Count)
system.atomicCpu1.exec_context.thread_0.statExecutedInstType::SimdCmp            0                       # Class of executed instruction. (Count)
system.atomicCpu1.exec_context.thread_0.statExecutedInstType::SimdCvt            0                       # Class of executed instruction. (Count)
system.atomicCpu1.exec_context.thread_0.statExecutedInstType::SimdMisc            0                       # Class of executed instruction. (Count)
system.atomicCpu1.exec_context.thread_0.statExecutedInstType::SimdMult            0                       # Class of executed instruction. (Count)
system.atomicCpu1.exec_context.thread_0.statExecutedInstType::SimdMultAcc            0                       # Class of executed instruction. (Count)
system.atomicCpu1.exec_context.thread_0.statExecutedInstType::SimdShift            0                       # Class of executed instruction. (Count)
system.atomicCpu1.exec_context.thread_0.statExecutedInstType::SimdShiftAcc            0                       # Class of executed instruction. (Count)
system.atomicCpu1.exec_context.thread_0.statExecutedInstType::SimdDiv            0                       # Class of executed instruction. (Count)
system.atomicCpu1.exec_context.thread_0.statExecutedInstType::SimdSqrt            0                       # Class of executed instruction. (Count)
system.atomicCpu1.exec_context.thread_0.statExecutedInstType::SimdFloatAdd            0                       # Class of executed instruction. (Count)
system.atomicCpu1.exec_context.thread_0.statExecutedInstType::SimdFloatAlu            0                       # Class of executed instruction. (Count)
system.atomicCpu1.exec_context.thread_0.statExecutedInstType::SimdFloatCmp            0                       # Class of executed instruction. (Count)
system.atomicCpu1.exec_context.thread_0.statExecutedInstType::SimdFloatCvt            0                       # Class of executed instruction. (Count)
system.atomicCpu1.exec_context.thread_0.statExecutedInstType::SimdFloatDiv            0                       # Class of executed instruction. (Count)
system.atomicCpu1.exec_context.thread_0.statExecutedInstType::SimdFloatMisc            0                       # Class of executed instruction. (Count)
system.atomicCpu1.exec_context.thread_0.statExecutedInstType::SimdFloatMult            0                       # Class of executed instruction. (Count)
system.atomicCpu1.exec_context.thread_0.statExecutedInstType::SimdFloatMultAcc            0                       # Class of executed instruction. (Count)
system.atomicCpu1.exec_context.thread_0.statExecutedInstType::SimdFloatSqrt            0                       # Class of executed instruction. (Count)
system.atomicCpu1.exec_context.thread_0.statExecutedInstType::SimdReduceAdd            0                       # Class of executed instruction. (Count)
system.atomicCpu1.exec_context.thread_0.statExecutedInstType::SimdReduceAlu            0                       # Class of executed instruction. (Count)
system.atomicCpu1.exec_context.thread_0.statExecutedInstType::SimdReduceCmp            0                       # Class of executed instruction. (Count)
system.atomicCpu1.exec_context.thread_0.statExecutedInstType::SimdFloatReduceAdd            0                       # Class of executed instruction. (Count)
system.atomicCpu1.exec_context.thread_0.statExecutedInstType::SimdFloatReduceCmp            0                       # Class of executed instruction. (Count)
system.atomicCpu1.exec_context.thread_0.statExecutedInstType::SimdAes            0                       # Class of executed instruction. (Count)
system.atomicCpu1.exec_context.thread_0.statExecutedInstType::SimdAesMix            0                       # Class of executed instruction. (Count)
system.atomicCpu1.exec_context.thread_0.statExecutedInstType::SimdSha1Hash            0                       # Class of executed instruction. (Count)
system.atomicCpu1.exec_context.thread_0.statExecutedInstType::SimdSha1Hash2            0                       # Class of executed instruction. (Count)
system.atomicCpu1.exec_context.thread_0.statExecutedInstType::SimdSha256Hash            0                       # Class of executed instruction. (Count)
system.atomicCpu1.exec_context.thread_0.statExecutedInstType::SimdSha256Hash2            0                       # Class of executed instruction. (Count)
system.atomicCpu1.exec_context.thread_0.statExecutedInstType::SimdShaSigma2            0                       # Class of executed instruction. (Count)
system.atomicCpu1.exec_context.thread_0.statExecutedInstType::SimdShaSigma3            0                       # Class of executed instruction. (Count)
system.atomicCpu1.exec_context.thread_0.statExecutedInstType::SimdPredAlu            0                       # Class of executed instruction. (Count)
system.atomicCpu1.exec_context.thread_0.statExecutedInstType::MemRead            0                       # Class of executed instruction. (Count)
system.atomicCpu1.exec_context.thread_0.statExecutedInstType::MemWrite            0                       # Class of executed instruction. (Count)
system.atomicCpu1.exec_context.thread_0.statExecutedInstType::FloatMemRead            0                       # Class of executed instruction. (Count)
system.atomicCpu1.exec_context.thread_0.statExecutedInstType::FloatMemWrite            0                       # Class of executed instruction. (Count)
system.atomicCpu1.exec_context.thread_0.statExecutedInstType::IprAccess            0                       # Class of executed instruction. (Count)
system.atomicCpu1.exec_context.thread_0.statExecutedInstType::InstPrefetch            0                       # Class of executed instruction. (Count)
system.atomicCpu1.exec_context.thread_0.statExecutedInstType::total            0                       # Class of executed instruction. (Count)
system.atomicCpu1.mmu.dtb.rdAccesses                0                       # TLB accesses on read requests (Count)
system.atomicCpu1.mmu.dtb.wrAccesses                0                       # TLB accesses on write requests (Count)
system.atomicCpu1.mmu.dtb.rdMisses                  0                       # TLB misses on read requests (Count)
system.atomicCpu1.mmu.dtb.wrMisses                  0                       # TLB misses on write requests (Count)
system.atomicCpu1.mmu.dtb.walker.power_state.pwrStateResidencyTicks::UNDEFINED 172874326112501                       # Cumulative time (in ticks) in various power states (Tick)
system.atomicCpu1.mmu.itb.rdAccesses                0                       # TLB accesses on read requests (Count)
system.atomicCpu1.mmu.itb.wrAccesses                0                       # TLB accesses on write requests (Count)
system.atomicCpu1.mmu.itb.rdMisses                  0                       # TLB misses on read requests (Count)
system.atomicCpu1.mmu.itb.wrMisses                  0                       # TLB misses on write requests (Count)
system.atomicCpu1.mmu.itb.walker.power_state.pwrStateResidencyTicks::UNDEFINED 172874326112501                       # Cumulative time (in ticks) in various power states (Tick)
system.atomicCpu1.power_state.pwrStateResidencyTicks::OFF 172874326112501                       # Cumulative time (in ticks) in various power states (Tick)
system.atomicCpu1.thread_0.numInsts                 0                       # Number of Instructions committed (Count)
system.atomicCpu1.thread_0.numOps                   0                       # Number of Ops committed (Count)
system.atomicCpu1.thread_0.numMemRefs               0                       # Number of Memory References (Count)
system.caches.delayHistogram::bucket_size           64                       # delay histogram for all message (Unspecified)
system.caches.delayHistogram::max_bucket          639                       # delay histogram for all message (Unspecified)
system.caches.delayHistogram::samples       227128180                       # delay histogram for all message (Unspecified)
system.caches.delayHistogram::mean           0.333863                       # delay histogram for all message (Unspecified)
system.caches.delayHistogram::stdev          1.605970                       # delay histogram for all message (Unspecified)
system.caches.delayHistogram             |   227128160    100.00%    100.00% |          17      0.00%    100.00% |           0      0.00%    100.00% |           0      0.00%    100.00% |           2      0.00%    100.00% |           0      0.00%    100.00% |           1      0.00%    100.00% |           0      0.00%    100.00% |           0      0.00%    100.00% |           0      0.00%    100.00% # delay histogram for all message (Unspecified)
system.caches.delayHistogram::total         227128180                       # delay histogram for all message (Unspecified)
system.caches.m_outstandReqHistSeqr::bucket_size            1                       (Unspecified)
system.caches.m_outstandReqHistSeqr::max_bucket            9                       (Unspecified)
system.caches.m_outstandReqHistSeqr::samples   1842846751                       (Unspecified)
system.caches.m_outstandReqHistSeqr::mean     1.000040                       (Unspecified)
system.caches.m_outstandReqHistSeqr::gmean     1.000027                       (Unspecified)
system.caches.m_outstandReqHistSeqr::stdev     0.006285                       (Unspecified)
system.caches.m_outstandReqHistSeqr      |           0      0.00%      0.00% |  1842773958    100.00%    100.00% |       72793      0.00%    100.00% |           0      0.00%    100.00% |           0      0.00%    100.00% |           0      0.00%    100.00% |           0      0.00%    100.00% |           0      0.00%    100.00% |           0      0.00%    100.00% |           0      0.00%    100.00% (Unspecified)
system.caches.m_outstandReqHistSeqr::total   1842846751                       (Unspecified)
system.caches.m_latencyHistSeqr::bucket_size          512                       (Unspecified)
system.caches.m_latencyHistSeqr::max_bucket         5119                       (Unspecified)
system.caches.m_latencyHistSeqr::samples   1842846751                       (Unspecified)
system.caches.m_latencyHistSeqr::mean        4.507678                       (Unspecified)
system.caches.m_latencyHistSeqr::gmean       1.104306                       (Unspecified)
system.caches.m_latencyHistSeqr::stdev      43.500720                       (Unspecified)
system.caches.m_latencyHistSeqr          |  1838926435     99.79%     99.79% |     3614496      0.20%     99.98% |      113362      0.01%     99.99% |      170498      0.01%    100.00% |       21505      0.00%    100.00% |         412      0.00%    100.00% |          38      0.00%    100.00% |           3      0.00%    100.00% |           0      0.00%    100.00% |           2      0.00%    100.00% (Unspecified)
system.caches.m_latencyHistSeqr::total     1842846751                       (Unspecified)
system.caches.m_hitLatencyHistSeqr::bucket_size            1                       (Unspecified)
system.caches.m_hitLatencyHistSeqr::max_bucket            9                       (Unspecified)
system.caches.m_hitLatencyHistSeqr::samples   1789878382                       (Unspecified)
system.caches.m_hitLatencyHistSeqr::mean            1                       (Unspecified)
system.caches.m_hitLatencyHistSeqr::gmean            1                       (Unspecified)
system.caches.m_hitLatencyHistSeqr       |           0      0.00%      0.00% |  1789878382    100.00%    100.00% |           0      0.00%    100.00% |           0      0.00%    100.00% |           0      0.00%    100.00% |           0      0.00%    100.00% |           0      0.00%    100.00% |           0      0.00%    100.00% |           0      0.00%    100.00% |           0      0.00%    100.00% (Unspecified)
system.caches.m_hitLatencyHistSeqr::total   1789878382                       (Unspecified)
system.caches.m_missLatencyHistSeqr::bucket_size          512                       (Unspecified)
system.caches.m_missLatencyHistSeqr::max_bucket         5119                       (Unspecified)
system.caches.m_missLatencyHistSeqr::samples     52968369                       (Unspecified)
system.caches.m_missLatencyHistSeqr::mean   123.037243                       (Unspecified)
system.caches.m_missLatencyHistSeqr::gmean    31.560254                       (Unspecified)
system.caches.m_missLatencyHistSeqr::stdev   226.652362                       (Unspecified)
system.caches.m_missLatencyHistSeqr      |    49048053     92.60%     92.60% |     3614496      6.82%     99.42% |      113362      0.21%     99.64% |      170498      0.32%     99.96% |       21505      0.04%    100.00% |         412      0.00%    100.00% |          38      0.00%    100.00% |           3      0.00%    100.00% |           0      0.00%    100.00% |           2      0.00%    100.00% (Unspecified)
system.caches.m_missLatencyHistSeqr::total     52968369                       (Unspecified)
system.caches.delayVCHist.vnet_0::bucket_size           64                       # delay histogram for vnet_0 (Unspecified)
system.caches.delayVCHist.vnet_0::max_bucket          639                       # delay histogram for vnet_0 (Unspecified)
system.caches.delayVCHist.vnet_0::samples    112953820                       # delay histogram for vnet_0 (Unspecified)
system.caches.delayVCHist.vnet_0::mean       0.670635                       # delay histogram for vnet_0 (Unspecified)
system.caches.delayVCHist.vnet_0::stdev      2.226298                       # delay histogram for vnet_0 (Unspecified)
system.caches.delayVCHist.vnet_0         |   112953800    100.00%    100.00% |          17      0.00%    100.00% |           0      0.00%    100.00% |           0      0.00%    100.00% |           2      0.00%    100.00% |           0      0.00%    100.00% |           1      0.00%    100.00% |           0      0.00%    100.00% |           0      0.00%    100.00% |           0      0.00%    100.00% # delay histogram for vnet_0 (Unspecified)
system.caches.delayVCHist.vnet_0::total     112953820                       # delay histogram for vnet_0 (Unspecified)
system.caches.delayVCHist.vnet_1::bucket_size            2                       # delay histogram for vnet_1 (Unspecified)
system.caches.delayVCHist.vnet_1::max_bucket           19                       # delay histogram for vnet_1 (Unspecified)
system.caches.delayVCHist.vnet_1::samples    110391557                       # delay histogram for vnet_1 (Unspecified)
system.caches.delayVCHist.vnet_1::mean       0.000703                       # delay histogram for vnet_1 (Unspecified)
system.caches.delayVCHist.vnet_1::stdev      0.064799                       # delay histogram for vnet_1 (Unspecified)
system.caches.delayVCHist.vnet_1         |   110375678     99.99%     99.99% |        4530      0.00%     99.99% |        3834      0.00%     99.99% |        3473      0.00%    100.00% |        4031      0.00%    100.00% |          11      0.00%    100.00% |           0      0.00%    100.00% |           0      0.00%    100.00% |           0      0.00%    100.00% |           0      0.00%    100.00% # delay histogram for vnet_1 (Unspecified)
system.caches.delayVCHist.vnet_1::total     110391557                       # delay histogram for vnet_1 (Unspecified)
system.caches.delayVCHist.vnet_2::bucket_size            1                       # delay histogram for vnet_2 (Unspecified)
system.caches.delayVCHist.vnet_2::max_bucket            9                       # delay histogram for vnet_2 (Unspecified)
system.caches.delayVCHist.vnet_2::samples      3782803                       # delay histogram for vnet_2 (Unspecified)
system.caches.delayVCHist.vnet_2::mean       0.000331                       # delay histogram for vnet_2 (Unspecified)
system.caches.delayVCHist.vnet_2::stdev      0.025767                       # delay histogram for vnet_2 (Unspecified)
system.caches.delayVCHist.vnet_2         |     3782178     99.98%     99.98% |           0      0.00%     99.98% |         624      0.02%    100.00% |           0      0.00%    100.00% |           1      0.00%    100.00% |           0      0.00%    100.00% |           0      0.00%    100.00% |           0      0.00%    100.00% |           0      0.00%    100.00% |           0      0.00%    100.00% # delay histogram for vnet_2 (Unspecified)
system.caches.delayVCHist.vnet_2::total       3782803                       # delay histogram for vnet_2 (Unspecified)
system.caches.L1Cache_Controller.Load    |   152732306     50.07%     50.07% |   152312994     49.93%    100.00% (Unspecified)
system.caches.L1Cache_Controller.Load::total    305045300                       (Unspecified)
system.caches.L1Cache_Controller.Ifetch  |   746648901     50.13%     50.13% |   742883978     49.87%    100.00% (Unspecified)
system.caches.L1Cache_Controller.Ifetch::total   1489532879                       (Unspecified)
system.caches.L1Cache_Controller.Store   |    24828808     51.44%     51.44% |    23439764     48.56%    100.00% (Unspecified)
system.caches.L1Cache_Controller.Store::total     48268572                       (Unspecified)
system.caches.L1Cache_Controller.Inv     |     1122905     49.97%     49.97% |     1124269     50.03%    100.00% (Unspecified)
system.caches.L1Cache_Controller.Inv::total      2247174                       (Unspecified)
system.caches.L1Cache_Controller.L1_Replacement |    26059043     50.07%     50.07% |    25984047     49.93%    100.00% (Unspecified)
system.caches.L1Cache_Controller.L1_Replacement::total     52043090                       (Unspecified)
system.caches.L1Cache_Controller.Fwd_GETX |       17220     49.36%     49.36% |       17668     50.64%    100.00% (Unspecified)
system.caches.L1Cache_Controller.Fwd_GETX::total        34888                       (Unspecified)
system.caches.L1Cache_Controller.Fwd_GETS |      748544     49.88%     49.88% |      752197     50.12%    100.00% (Unspecified)
system.caches.L1Cache_Controller.Fwd_GETS::total      1500741                       (Unspecified)
system.caches.L1Cache_Controller.Data    |        6904     60.96%     60.96% |        4422     39.04%    100.00% (Unspecified)
system.caches.L1Cache_Controller.Data::total        11326                       (Unspecified)
system.caches.L1Cache_Controller.Data_Exclusive |    14029754     49.94%     49.94% |    14064463     50.06%    100.00% (Unspecified)
system.caches.L1Cache_Controller.Data_Exclusive::total     28094217                       (Unspecified)
system.caches.L1Cache_Controller.DataS_fromL1 |      752197     50.12%     50.12% |      748544     49.88%    100.00% (Unspecified)
system.caches.L1Cache_Controller.DataS_fromL1::total      1500741                       (Unspecified)
system.caches.L1Cache_Controller.Data_all_Acks |    11346434     50.22%     50.22% |    11245822     49.78%    100.00% (Unspecified)
system.caches.L1Cache_Controller.Data_all_Acks::total     22592256                       (Unspecified)
system.caches.L1Cache_Controller.Ack     |      387456     50.33%     50.33% |      382373     49.67%    100.00% (Unspecified)
system.caches.L1Cache_Controller.Ack::total       769829                       (Unspecified)
system.caches.L1Cache_Controller.Ack_all |      394360     50.48%     50.48% |      386795     49.52%    100.00% (Unspecified)
system.caches.L1Cache_Controller.Ack_all::total       781155                       (Unspecified)
system.caches.L1Cache_Controller.WB_Ack  |    14272476     50.14%     50.14% |    14192527     49.86%    100.00% (Unspecified)
system.caches.L1Cache_Controller.WB_Ack::total     28465003                       (Unspecified)
system.caches.L1Cache_Controller.NP.Load |    25396826     49.94%     49.94% |    25455343     50.06%    100.00% (Unspecified)
system.caches.L1Cache_Controller.NP.Load::total     50852169                       (Unspecified)
system.caches.L1Cache_Controller.NP.Ifetch |       49976     69.56%     69.56% |       21875     30.44%    100.00% (Unspecified)
system.caches.L1Cache_Controller.NP.Ifetch::total        71851                       (Unspecified)
system.caches.L1Cache_Controller.NP.Store |      620943     54.64%     54.64% |      515531     45.36%    100.00% (Unspecified)
system.caches.L1Cache_Controller.NP.Store::total      1136474                       (Unspecified)
system.caches.L1Cache_Controller.NP.Inv  |      767928     50.04%     50.04% |      766759     49.96%    100.00% (Unspecified)
system.caches.L1Cache_Controller.NP.Inv::total      1534687                       (Unspecified)
system.caches.L1Cache_Controller.I.Load  |       31871     45.21%     45.21% |       38620     54.79%    100.00% (Unspecified)
system.caches.L1Cache_Controller.I.Load::total        70491                       (Unspecified)
system.caches.L1Cache_Controller.I.Ifetch |       26110     53.98%     53.98% |       22258     46.02%    100.00% (Unspecified)
system.caches.L1Cache_Controller.I.Ifetch::total        48368                       (Unspecified)
system.caches.L1Cache_Controller.I.Store |        9561     49.92%     49.92% |        9590     50.08%    100.00% (Unspecified)
system.caches.L1Cache_Controller.I.Store::total        19151                       (Unspecified)
system.caches.L1Cache_Controller.I.Inv   |           0      0.00%      0.00% |           1    100.00%    100.00% (Unspecified)
system.caches.L1Cache_Controller.I.Inv::total            1                       (Unspecified)
system.caches.L1Cache_Controller.I.L1_Replacement |      304632     50.01%     50.01% |      304463     49.99%    100.00% (Unspecified)
system.caches.L1Cache_Controller.I.L1_Replacement::total       609095                       (Unspecified)
system.caches.L1Cache_Controller.S.Load  |    65657379     49.89%     49.89% |    65942230     50.11%    100.00% (Unspecified)
system.caches.L1Cache_Controller.S.Load::total    131599609                       (Unspecified)
system.caches.L1Cache_Controller.S.Ifetch |   746572815     50.13%     50.13% |   742839845     49.87%    100.00% (Unspecified)
system.caches.L1Cache_Controller.S.Ifetch::total   1489412660                       (Unspecified)
system.caches.L1Cache_Controller.S.Store |      387458     50.33%     50.33% |      382407     49.67%    100.00% (Unspecified)
system.caches.L1Cache_Controller.S.Store::total       769865                       (Unspecified)
system.caches.L1Cache_Controller.S.Inv   |      353560     49.83%     49.83% |      355946     50.17%    100.00% (Unspecified)
system.caches.L1Cache_Controller.S.Inv::total       709506                       (Unspecified)
system.caches.L1Cache_Controller.S.L1_Replacement |    11481935     49.99%     49.99% |    11487057     50.01%    100.00% (Unspecified)
system.caches.L1Cache_Controller.S.L1_Replacement::total     22968992                       (Unspecified)
system.caches.L1Cache_Controller.E.Load  |    47990467     50.31%     50.31% |    47400993     49.69%    100.00% (Unspecified)
system.caches.L1Cache_Controller.E.Load::total     95391460                       (Unspecified)
system.caches.L1Cache_Controller.E.Store |     4060950     49.95%     49.95% |     4069807     50.05%    100.00% (Unspecified)
system.caches.L1Cache_Controller.E.Store::total      8130757                       (Unspecified)
system.caches.L1Cache_Controller.E.Inv   |         653     47.87%     47.87% |         711     52.13%    100.00% (Unspecified)
system.caches.L1Cache_Controller.E.Inv::total         1364                       (Unspecified)
system.caches.L1Cache_Controller.E.L1_Replacement |     9552479     49.97%     49.97% |     9564906     50.03%    100.00% (Unspecified)
system.caches.L1Cache_Controller.E.L1_Replacement::total     19117385                       (Unspecified)
system.caches.L1Cache_Controller.E.Fwd_GETX |        1581     43.95%     43.95% |        2016     56.05%    100.00% (Unspecified)
system.caches.L1Cache_Controller.E.Fwd_GETX::total         3597                       (Unspecified)
system.caches.L1Cache_Controller.E.Fwd_GETS |      413740     49.21%     49.21% |      426974     50.79%    100.00% (Unspecified)
system.caches.L1Cache_Controller.E.Fwd_GETS::total       840714                       (Unspecified)
system.caches.L1Cache_Controller.M.Load  |    13655763     50.33%     50.33% |    13475808     49.67%    100.00% (Unspecified)
system.caches.L1Cache_Controller.M.Load::total     27131571                       (Unspecified)
system.caches.L1Cache_Controller.M.Store |    19749896     51.68%     51.68% |    18462429     48.32%    100.00% (Unspecified)
system.caches.L1Cache_Controller.M.Store::total     38212325                       (Unspecified)
system.caches.L1Cache_Controller.M.Inv   |         761     48.47%     48.47% |         809     51.53%    100.00% (Unspecified)
system.caches.L1Cache_Controller.M.Inv::total         1570                       (Unspecified)
system.caches.L1Cache_Controller.M.L1_Replacement |     4719997     50.49%     50.49% |     4627621     49.51%    100.00% (Unspecified)
system.caches.L1Cache_Controller.M.L1_Replacement::total      9347618                       (Unspecified)
system.caches.L1Cache_Controller.M.Fwd_GETX |       15639     49.98%     49.98% |       15652     50.02%    100.00% (Unspecified)
system.caches.L1Cache_Controller.M.Fwd_GETX::total        31291                       (Unspecified)
system.caches.L1Cache_Controller.M.Fwd_GETS |      334798     50.73%     50.73% |      325220     49.27%    100.00% (Unspecified)
system.caches.L1Cache_Controller.M.Fwd_GETS::total       660018                       (Unspecified)
system.caches.L1Cache_Controller.IS.Inv  |           1     10.00%     10.00% |           9     90.00%    100.00% (Unspecified)
system.caches.L1Cache_Controller.IS.Inv::total           10                       (Unspecified)
system.caches.L1Cache_Controller.IS.Data_Exclusive |    14029753     49.94%     49.94% |    14064463     50.06%    100.00% (Unspecified)
system.caches.L1Cache_Controller.IS.Data_Exclusive::total     28094216                       (Unspecified)
system.caches.L1Cache_Controller.IS.DataS_fromL1 |      752197     50.12%     50.12% |      748535     49.88%    100.00% (Unspecified)
system.caches.L1Cache_Controller.IS.DataS_fromL1::total      1500732                       (Unspecified)
system.caches.L1Cache_Controller.IS.Data_all_Acks |    10722832     49.99%     49.99% |    10725089     50.01%    100.00% (Unspecified)
system.caches.L1Cache_Controller.IS.Data_all_Acks::total     21447921                       (Unspecified)
system.caches.L1Cache_Controller.IM.Data |        6904     60.96%     60.96% |        4422     39.04%    100.00% (Unspecified)
system.caches.L1Cache_Controller.IM.Data::total        11326                       (Unspecified)
system.caches.L1Cache_Controller.IM.Data_all_Acks |      623602     54.49%     54.49% |      520733     45.51%    100.00% (Unspecified)
system.caches.L1Cache_Controller.IM.Data_all_Acks::total      1144335                       (Unspecified)
system.caches.L1Cache_Controller.SM.Inv  |           2      5.56%      5.56% |          34     94.44%    100.00% (Unspecified)
system.caches.L1Cache_Controller.SM.Inv::total           36                       (Unspecified)
system.caches.L1Cache_Controller.SM.Ack  |      387456     50.33%     50.33% |      382373     49.67%    100.00% (Unspecified)
system.caches.L1Cache_Controller.SM.Ack::total       769829                       (Unspecified)
system.caches.L1Cache_Controller.SM.Ack_all |      394360     50.48%     50.48% |      386795     49.52%    100.00% (Unspecified)
system.caches.L1Cache_Controller.SM.Ack_all::total       781155                       (Unspecified)
system.caches.L1Cache_Controller.IS_I.Data_Exclusive |           1    100.00%    100.00% |           0      0.00%    100.00% (Unspecified)
system.caches.L1Cache_Controller.IS_I.Data_Exclusive::total            1                       (Unspecified)
system.caches.L1Cache_Controller.IS_I.DataS_fromL1 |           0      0.00%      0.00% |           9    100.00%    100.00% (Unspecified)
system.caches.L1Cache_Controller.IS_I.DataS_fromL1::total            9                       (Unspecified)
system.caches.L1Cache_Controller.M_I.Fwd_GETS |           6     66.67%     66.67% |           3     33.33%    100.00% (Unspecified)
system.caches.L1Cache_Controller.M_I.Fwd_GETS::total            9                       (Unspecified)
system.caches.L1Cache_Controller.M_I.WB_Ack |    14272470     50.14%     50.14% |    14192524     49.86%    100.00% (Unspecified)
system.caches.L1Cache_Controller.M_I.WB_Ack::total     28464994                       (Unspecified)
system.caches.L1Cache_Controller.SINK_WB_ACK.WB_Ack |           6     66.67%     66.67% |           3     33.33%    100.00% (Unspecified)
system.caches.L1Cache_Controller.SINK_WB_ACK.WB_Ack::total            9                       (Unspecified)
system.caches.Directory_Controller.Fetch     12670671      0.00%      0.00% (Unspecified)
system.caches.Directory_Controller.Data       3591969      0.00%      0.00% (Unspecified)
system.caches.Directory_Controller.Memory_Data     12670671      0.00%      0.00% (Unspecified)
system.caches.Directory_Controller.Memory_Ack      3591969      0.00%      0.00% (Unspecified)
system.caches.Directory_Controller.CleanReplacement      8947630      0.00%      0.00% (Unspecified)
system.caches.Directory_Controller.I.Fetch     12670671      0.00%      0.00% (Unspecified)
system.caches.Directory_Controller.M.Data      3591969      0.00%      0.00% (Unspecified)
system.caches.Directory_Controller.M.CleanReplacement      8947630      0.00%      0.00% (Unspecified)
system.caches.Directory_Controller.IM.Memory_Data     12670671      0.00%      0.00% (Unspecified)
system.caches.Directory_Controller.MI.Memory_Ack      3591969      0.00%      0.00% (Unspecified)
system.caches.L2Cache_Controller.L1_GET_INSTR |       10766      8.95%      8.95% |       17876     14.86%     23.81% |       15442     12.84%     36.65% |        7071      5.88%     42.53% |       13801     11.47%     54.00% |       17374     14.44%     68.45% |       19509     16.22%     84.67% |       18443     15.33%    100.00% (Unspecified)
system.caches.L2Cache_Controller.L1_GET_INSTR::total       120282                       (Unspecified)
system.caches.L2Cache_Controller.L1_GETS |     6380729     12.53%     12.53% |     6322926     12.42%     24.95% |     6384292     12.54%     37.48% |     6370227     12.51%     49.99% |     6438564     12.64%     62.63% |     6372045     12.51%     75.15% |     6286119     12.34%     87.49% |     6371267     12.51%    100.00% (Unspecified)
system.caches.L2Cache_Controller.L1_GETS::total     50926169                       (Unspecified)
system.caches.L2Cache_Controller.L1_GETX |      144880     12.54%     12.54% |      147185     12.74%     25.27% |      137136     11.87%     37.14% |      151081     13.07%     50.21% |      138247     11.96%     62.17% |      148321     12.83%     75.01% |      142079     12.29%     87.30% |      146751     12.70%    100.00% (Unspecified)
system.caches.L2Cache_Controller.L1_GETX::total      1155680                       (Unspecified)
system.caches.L2Cache_Controller.L1_UPGRADE |       93494     12.10%     12.10% |       98837     12.79%     24.89% |       98668     12.77%     37.66% |       96734     12.52%     50.18% |       94948     12.29%     62.47% |       93356     12.08%     74.55% |      103152     13.35%     87.90% |       93532     12.10%    100.00% (Unspecified)
system.caches.L2Cache_Controller.L1_UPGRADE::total       772721                       (Unspecified)
system.caches.L2Cache_Controller.L1_PUTX |     3569805     12.54%     12.54% |     3565221     12.52%     25.07% |     3550857     12.47%     37.54% |     3566808     12.53%     50.07% |     3557038     12.50%     62.57% |     3558954     12.50%     75.07% |     3529951     12.40%     87.47% |     3566378     12.53%    100.00% (Unspecified)
system.caches.L2Cache_Controller.L1_PUTX::total     28465012                       (Unspecified)
system.caches.L2Cache_Controller.L2_Replacement |      449141     12.51%     12.51% |      447328     12.46%     24.96% |      448956     12.50%     37.47% |      450295     12.54%     50.01% |      449768     12.52%     62.53% |      448183     12.48%     75.01% |      447232     12.45%     87.47% |      450120     12.53%    100.00% (Unspecified)
system.caches.L2Cache_Controller.L2_Replacement::total      3591023                       (Unspecified)
system.caches.L2Cache_Controller.L2_Replacement_clean |     1121387     12.53%     12.53% |     1117520     12.49%     25.02% |     1118913     12.50%     37.52% |     1118680     12.50%     50.02% |     1118022     12.49%     62.52% |     1117036     12.48%     75.00% |     1116889     12.48%     87.48% |     1120129     12.52%    100.00% (Unspecified)
system.caches.L2Cache_Controller.L2_Replacement_clean::total      8948576                       (Unspecified)
system.caches.L2Cache_Controller.Mem_Data |     1586912     12.52%     12.52% |     1581232     12.48%     25.00% |     1584253     12.50%     37.51% |     1585359     12.51%     50.02% |     1584174     12.50%     62.52% |     1581603     12.48%     75.00% |     1580505     12.47%     87.48% |     1586633     12.52%    100.00% (Unspecified)
system.caches.L2Cache_Controller.Mem_Data::total     12670671                       (Unspecified)
system.caches.L2Cache_Controller.Mem_Ack |     1570528     12.52%     12.52% |     1564848     12.48%     25.00% |     1567869     12.50%     37.51% |     1568975     12.51%     50.02% |     1567790     12.50%     62.52% |     1565219     12.48%     75.00% |     1564121     12.47%     87.48% |     1570249     12.52%    100.00% (Unspecified)
system.caches.L2Cache_Controller.Mem_Ack::total     12539599                       (Unspecified)
system.caches.L2Cache_Controller.WB_Data |       81264     12.28%     12.28% |       84684     12.80%     25.08% |       84770     12.81%     37.90% |       82845     12.52%     50.42% |       81172     12.27%     62.69% |       79315     11.99%     74.68% |       87661     13.25%     87.93% |       79881     12.07%    100.00% (Unspecified)
system.caches.L2Cache_Controller.WB_Data::total       661592                       (Unspecified)
system.caches.L2Cache_Controller.WB_Data_clean |      103313     12.29%     12.29% |      103260     12.28%     24.57% |      112359     13.36%     37.94% |      102134     12.15%     50.08% |      101959     12.13%     62.21% |      102245     12.16%     74.37% |      112254     13.35%     87.73% |      103195     12.27%    100.00% (Unspecified)
system.caches.L2Cache_Controller.WB_Data_clean::total       840719                       (Unspecified)
system.caches.L2Cache_Controller.Ack     |       89131     12.28%     12.28% |       88926     12.25%     24.52% |       97868     13.48%     38.00% |       87407     12.04%     50.04% |       87771     12.09%     62.13% |       87876     12.10%     74.23% |       98243     13.53%     87.76% |       88881     12.24%    100.00% (Unspecified)
system.caches.L2Cache_Controller.Ack::total       726103                       (Unspecified)
system.caches.L2Cache_Controller.Ack_all |       90769     12.29%     12.29% |       90682     12.28%     24.58% |       99429     13.47%     38.04% |       89023     12.06%     50.10% |       89106     12.07%     62.17% |       89254     12.09%     74.26% |       99449     13.47%     87.72% |       90634     12.28%    100.00% (Unspecified)
system.caches.L2Cache_Controller.Ack_all::total       738346                       (Unspecified)
system.caches.L2Cache_Controller.Unblock |      184318     12.28%     12.28% |      187827     12.52%     24.80% |      196922     13.12%     37.92% |      184812     12.31%     50.23% |      182999     12.19%     62.43% |      181403     12.09%     74.52% |      199766     13.31%     87.83% |      182694     12.17%    100.00% (Unspecified)
system.caches.L2Cache_Controller.Unblock::total      1500741                       (Unspecified)
system.caches.L2Cache_Controller.Exclusive_Unblock |     3759126     12.52%     12.52% |     3764633     12.54%     25.06% |     3752040     12.50%     37.56% |     3767443     12.55%     50.11% |     3744179     12.47%     62.58% |     3744697     12.47%     75.06% |     3733987     12.44%     87.50% |     3753602     12.50%    100.00% (Unspecified)
system.caches.L2Cache_Controller.Exclusive_Unblock::total     30019707                       (Unspecified)
system.caches.L2Cache_Controller.NP.L1_GET_INSTR |        4560     12.97%     12.97% |        4852     13.80%     26.76% |        4263     12.12%     38.88% |        3939     11.20%     50.08% |        4340     12.34%     62.42% |        4406     12.53%     74.95% |        4188     11.91%     86.86% |        4621     13.14%    100.00% (Unspecified)
system.caches.L2Cache_Controller.NP.L1_GET_INSTR::total        35169                       (Unspecified)
system.caches.L2Cache_Controller.NP.L1_GETS |     1498104     12.52%     12.52% |     1492306     12.48%     25.00% |     1495594     12.50%     37.50% |     1497006     12.52%     50.02% |     1495604     12.50%     62.52% |     1493012     12.48%     75.00% |     1492293     12.48%     87.48% |     1497716     12.52%    100.00% (Unspecified)
system.caches.L2Cache_Controller.NP.L1_GETS::total     11961635                       (Unspecified)
system.caches.L2Cache_Controller.NP.L1_GETX |       84248     12.50%     12.50% |       84074     12.48%     24.98% |       84396     12.52%     37.50% |       84414     12.53%     50.03% |       84230     12.50%     62.53% |       84185     12.49%     75.02% |       84024     12.47%     87.49% |       84296     12.51%    100.00% (Unspecified)
system.caches.L2Cache_Controller.NP.L1_GETX::total       673867                       (Unspecified)
system.caches.L2Cache_Controller.SS.L1_GET_INSTR |        4609      6.17%      6.17% |       11488     15.38%     21.55% |       10057     13.46%     35.02% |        1899      2.54%     37.56% |        8093     10.84%     48.39% |       11655     15.60%     64.00% |       14218     19.04%     83.04% |       12671     16.96%    100.00% (Unspecified)
system.caches.L2Cache_Controller.SS.L1_GET_INSTR::total        74690                       (Unspecified)
system.caches.L2Cache_Controller.SS.L1_GETS |     2675328     12.54%     12.54% |     2616403     12.27%     24.81% |     2670872     12.52%     37.34% |     2665528     12.50%     49.84% |     2744528     12.87%     62.71% |     2687570     12.60%     75.31% |     2591027     12.15%     87.46% |     2674974     12.54%    100.00% (Unspecified)
system.caches.L2Cache_Controller.SS.L1_GETS::total     21326230                       (Unspecified)
system.caches.L2Cache_Controller.SS.L1_GETX |        2710     23.93%     23.93% |        1016      8.97%     32.90% |        1071      9.46%     42.35% |        1075      9.49%     51.85% |        1113      9.83%     61.67% |        1065      9.40%     71.08% |        2166     19.12%     90.20% |        1110      9.80%    100.00% (Unspecified)
system.caches.L2Cache_Controller.SS.L1_GETX::total        11326                       (Unspecified)
system.caches.L2Cache_Controller.SS.L1_UPGRADE |       93490     12.14%     12.14% |       98830     12.84%     24.98% |       98664     12.82%     37.80% |       96727     12.56%     50.36% |       94942     12.33%     62.70% |       93351     12.13%     74.82% |      100298     13.03%     87.85% |       93527     12.15%    100.00% (Unspecified)
system.caches.L2Cache_Controller.SS.L1_UPGRADE::total       769829                       (Unspecified)
system.caches.L2Cache_Controller.SS.L1_PUTX |           1     11.11%     11.11% |           3     33.33%     44.44% |           0      0.00%     44.44% |           1     11.11%     55.56% |           1     11.11%     66.67% |           1     11.11%     77.78% |           1     11.11%     88.89% |           1     11.11%    100.00% (Unspecified)
system.caches.L2Cache_Controller.SS.L1_PUTX::total            9                       (Unspecified)
system.caches.L2Cache_Controller.SS.L2_Replacement |       12785     12.61%     12.61% |       12585     12.41%     25.02% |       12684     12.51%     37.53% |       12706     12.53%     50.06% |       12601     12.43%     62.49% |       12638     12.46%     74.96% |       12590     12.42%     87.37% |       12803     12.63%    100.00% (Unspecified)
system.caches.L2Cache_Controller.SS.L2_Replacement::total       101392                       (Unspecified)
system.caches.L2Cache_Controller.SS.L2_Replacement_clean |       77717     12.23%     12.23% |       77927     12.26%     24.49% |       86580     13.62%     38.11% |       76108     11.97%     50.08% |       76397     12.02%     62.10% |       76448     12.03%     74.13% |       86749     13.65%     87.78% |       77664     12.22%    100.00% (Unspecified)
system.caches.L2Cache_Controller.SS.L2_Replacement_clean::total       635590                       (Unspecified)
system.caches.L2Cache_Controller.M.L1_GETS |     2022810     12.54%     12.54% |     2026349     12.56%     25.10% |     2020773     12.53%     37.62% |     2022752     12.54%     50.16% |     2015408     12.49%     62.65% |     2010036     12.46%     75.11% |     1999452     12.39%     87.51% |     2015738     12.49%    100.00% (Unspecified)
system.caches.L2Cache_Controller.M.L1_GETS::total     16133318                       (Unspecified)
system.caches.L2Cache_Controller.M.L1_GETX |       55447     12.73%     12.73% |       52814     12.12%     24.85% |       49783     11.43%     36.28% |       52166     11.98%     48.26% |       51021     11.71%     59.97% |       61079     14.02%     74.00% |       53905     12.38%     86.37% |       59365     13.63%    100.00% (Unspecified)
system.caches.L2Cache_Controller.M.L1_GETX::total       435580                       (Unspecified)
system.caches.L2Cache_Controller.M.L2_Replacement |      436248     12.50%     12.50% |      434678     12.46%     24.96% |      436221     12.50%     37.47% |      437512     12.54%     50.01% |      437087     12.53%     62.53% |      435443     12.48%     75.01% |      434570     12.46%     87.47% |      437192     12.53%    100.00% (Unspecified)
system.caches.L2Cache_Controller.M.L2_Replacement::total      3488951                       (Unspecified)
system.caches.L2Cache_Controller.M.L2_Replacement_clean |     1043252     12.55%     12.55% |     1039371     12.51%     25.06% |     1032012     12.42%     37.48% |     1042273     12.54%     50.02% |     1041465     12.53%     62.55% |     1040365     12.52%     75.07% |     1029953     12.39%     87.46% |     1042041     12.54%    100.00% (Unspecified)
system.caches.L2Cache_Controller.M.L2_Replacement_clean::total      8310732                       (Unspecified)
system.caches.L2Cache_Controller.MT.L1_GETS |      184318     12.28%     12.28% |      187827     12.52%     24.80% |      196922     13.12%     37.92% |      184812     12.31%     50.23% |      182999     12.19%     62.43% |      181403     12.09%     74.52% |      199766     13.31%     87.83% |      182694     12.17%    100.00% (Unspecified)
system.caches.L2Cache_Controller.MT.L1_GETS::total      1500741                       (Unspecified)
system.caches.L2Cache_Controller.MT.L1_GETX |        2474      7.09%      7.09% |        9278     26.59%     33.68% |        1879      5.39%     39.07% |       13425     38.48%     77.55% |        1883      5.40%     82.95% |        1992      5.71%     88.66% |        1983      5.68%     94.34% |        1974      5.66%    100.00% (Unspecified)
system.caches.L2Cache_Controller.MT.L1_GETX::total        34888                       (Unspecified)
system.caches.L2Cache_Controller.MT.L1_PUTX |     3569803     12.54%     12.54% |     3565215     12.52%     25.07% |     3550857     12.47%     37.54% |     3566806     12.53%     50.07% |     3557036     12.50%     62.57% |     3558952     12.50%     75.07% |     3529949     12.40%     87.47% |     3566376     12.53%    100.00% (Unspecified)
system.caches.L2Cache_Controller.MT.L1_PUTX::total     28464994                       (Unspecified)
system.caches.L2Cache_Controller.MT.L2_Replacement |         108     15.88%     15.88% |          65      9.56%     25.44% |          51      7.50%     32.94% |          77     11.32%     44.26% |          80     11.76%     56.03% |         102     15.00%     71.03% |          72     10.59%     81.62% |         125     18.38%    100.00% (Unspecified)
system.caches.L2Cache_Controller.MT.L2_Replacement::total          680                       (Unspecified)
system.caches.L2Cache_Controller.MT.L2_Replacement_clean |         418     18.54%     18.54% |         222      9.85%     28.39% |         321     14.24%     42.64% |         299     13.27%     55.90% |         160      7.10%     63.00% |         223      9.89%     72.89% |         187      8.30%     81.19% |         424     18.81%    100.00% (Unspecified)
system.caches.L2Cache_Controller.MT.L2_Replacement_clean::total         2254                       (Unspecified)
system.caches.L2Cache_Controller.M_I.L1_GET_INSTR |          11     17.46%     17.46% |           6      9.52%     26.98% |          10     15.87%     42.86% |          12     19.05%     61.90% |          19     30.16%     92.06% |           5      7.94%    100.00% |           0      0.00%    100.00% |           0      0.00%    100.00% (Unspecified)
system.caches.L2Cache_Controller.M_I.L1_GET_INSTR::total           63                       (Unspecified)
system.caches.L2Cache_Controller.M_I.L1_GETS |           8     23.53%     23.53% |           1      2.94%     26.47% |           5     14.71%     41.18% |           5     14.71%     55.88% |           0      0.00%     55.88% |           1      2.94%     58.82% |           1      2.94%     61.76% |          13     38.24%    100.00% (Unspecified)
system.caches.L2Cache_Controller.M_I.L1_GETS::total           34                       (Unspecified)
system.caches.L2Cache_Controller.M_I.L1_GETX |           0      0.00%      0.00% |           0      0.00%      0.00% |           7     50.00%     50.00% |           0      0.00%     50.00% |           0      0.00%     50.00% |           0      0.00%     50.00% |           1      7.14%     57.14% |           6     42.86%    100.00% (Unspecified)
system.caches.L2Cache_Controller.M_I.L1_GETX::total           14                       (Unspecified)
system.caches.L2Cache_Controller.M_I.Mem_Ack |     1570528     12.52%     12.52% |     1564848     12.48%     25.00% |     1567869     12.50%     37.51% |     1568975     12.51%     50.02% |     1567790     12.50%     62.52% |     1565219     12.48%     75.00% |     1564121     12.47%     87.48% |     1570249     12.52%    100.00% (Unspecified)
system.caches.L2Cache_Controller.M_I.Mem_Ack::total     12539599                       (Unspecified)
system.caches.L2Cache_Controller.MT_I.WB_Data |         100     16.03%     16.03% |          57      9.13%     25.16% |          51      8.17%     33.33% |          68     10.90%     44.23% |          73     11.70%     55.93% |          93     14.90%     70.83% |          66     10.58%     81.41% |         116     18.59%    100.00% (Unspecified)
system.caches.L2Cache_Controller.MT_I.WB_Data::total          624                       (Unspecified)
system.caches.L2Cache_Controller.MT_I.Ack_all |           8     14.29%     14.29% |           8     14.29%     28.57% |           0      0.00%     28.57% |           9     16.07%     44.64% |           7     12.50%     57.14% |           9     16.07%     73.21% |           6     10.71%     83.93% |           9     16.07%    100.00% (Unspecified)
system.caches.L2Cache_Controller.MT_I.Ack_all::total           56                       (Unspecified)
system.caches.L2Cache_Controller.MCT_I.WB_Data |         159     16.81%     16.81% |          60      6.34%     23.15% |         156     16.49%     39.64% |          99     10.47%     50.11% |          59      6.24%     56.34% |          64      6.77%     63.11% |          83      8.77%     71.88% |         266     28.12%    100.00% (Unspecified)
system.caches.L2Cache_Controller.MCT_I.WB_Data::total          946                       (Unspecified)
system.caches.L2Cache_Controller.MCT_I.Ack_all |         259     19.80%     19.80% |         162     12.39%     32.19% |         165     12.61%     44.80% |         200     15.29%     60.09% |         101      7.72%     67.81% |         159     12.16%     79.97% |         104      7.95%     87.92% |         158     12.08%    100.00% (Unspecified)
system.caches.L2Cache_Controller.MCT_I.Ack_all::total         1308                       (Unspecified)
system.caches.L2Cache_Controller.I_I.L1_GETS |           1    100.00%    100.00% |           0      0.00%    100.00% |           0      0.00%    100.00% |           0      0.00%    100.00% |           0      0.00%    100.00% |           0      0.00%    100.00% |           0      0.00%    100.00% |           0      0.00%    100.00% (Unspecified)
system.caches.L2Cache_Controller.I_I.L1_GETS::total            1                       (Unspecified)
system.caches.L2Cache_Controller.I_I.Ack |       76346     12.22%     12.22% |       76341     12.22%     24.44% |       85184     13.64%     38.08% |       74701     11.96%     50.03% |       75170     12.03%     62.07% |       75238     12.04%     74.11% |       85653     13.71%     87.82% |       76078     12.18%    100.00% (Unspecified)
system.caches.L2Cache_Controller.I_I.Ack::total       624711                       (Unspecified)
system.caches.L2Cache_Controller.I_I.Ack_all |       77717     12.23%     12.23% |       77927     12.26%     24.49% |       86580     13.62%     38.11% |       76108     11.97%     50.08% |       76397     12.02%     62.10% |       76448     12.03%     74.13% |       86749     13.65%     87.78% |       77664     12.22%    100.00% (Unspecified)
system.caches.L2Cache_Controller.I_I.Ack_all::total       635590                       (Unspecified)
system.caches.L2Cache_Controller.S_I.Ack |       12785     12.61%     12.61% |       12585     12.41%     25.02% |       12684     12.51%     37.53% |       12706     12.53%     50.06% |       12601     12.43%     62.49% |       12638     12.46%     74.96% |       12590     12.42%     87.37% |       12803     12.63%    100.00% (Unspecified)
system.caches.L2Cache_Controller.S_I.Ack::total       101392                       (Unspecified)
system.caches.L2Cache_Controller.S_I.Ack_all |       12785     12.61%     12.61% |       12585     12.41%     25.02% |       12684     12.51%     37.53% |       12706     12.53%     50.06% |       12601     12.43%     62.49% |       12638     12.46%     74.96% |       12590     12.42%     87.37% |       12803     12.63%    100.00% (Unspecified)
system.caches.L2Cache_Controller.S_I.Ack_all::total       101392                       (Unspecified)
system.caches.L2Cache_Controller.ISS.L1_GETS |         157     21.33%     21.33% |          34      4.62%     25.95% |         120     16.30%     42.26% |         122     16.58%     58.83% |          22      2.99%     61.82% |          23      3.12%     64.95% |         134     18.21%     83.15% |         124     16.85%    100.00% (Unspecified)
system.caches.L2Cache_Controller.ISS.L1_GETS::total          736                       (Unspecified)
system.caches.L2Cache_Controller.ISS.Mem_Data |     1497947     12.52%     12.52% |     1492272     12.48%     25.00% |     1495474     12.50%     37.50% |     1496884     12.51%     50.02% |     1495582     12.50%     62.52% |     1492989     12.48%     75.00% |     1492159     12.48%     87.48% |     1497592     12.52%    100.00% (Unspecified)
system.caches.L2Cache_Controller.ISS.Mem_Data::total     11960899                       (Unspecified)
system.caches.L2Cache_Controller.IS.L1_GET_INSTR |        1586     15.31%     15.31% |        1530     14.77%     30.08% |        1112     10.73%     40.81% |        1221     11.79%     52.60% |        1349     13.02%     65.62% |        1308     12.63%     78.24% |        1103     10.65%     88.89% |        1151     11.11%    100.00% (Unspecified)
system.caches.L2Cache_Controller.IS.L1_GET_INSTR::total        10360                       (Unspecified)
system.caches.L2Cache_Controller.IS.Mem_Data |        4717     13.14%     13.14% |        4886     13.61%     26.75% |        4383     12.21%     38.95% |        4061     11.31%     50.26% |        4362     12.15%     62.41% |        4429     12.34%     74.75% |        4322     12.04%     86.78% |        4745     13.22%    100.00% (Unspecified)
system.caches.L2Cache_Controller.IS.Mem_Data::total        35905                       (Unspecified)
system.caches.L2Cache_Controller.IM.L1_GETX |           0      0.00%      0.00% |           2     66.67%     66.67% |           0      0.00%     66.67% |           1     33.33%    100.00% |           0      0.00%    100.00% |           0      0.00%    100.00% |           0      0.00%    100.00% |           0      0.00%    100.00% (Unspecified)
system.caches.L2Cache_Controller.IM.L1_GETX::total            3                       (Unspecified)
system.caches.L2Cache_Controller.IM.Mem_Data |       84248     12.50%     12.50% |       84074     12.48%     24.98% |       84396     12.52%     37.50% |       84414     12.53%     50.03% |       84230     12.50%     62.53% |       84185     12.49%     75.02% |       84024     12.47%     87.49% |       84296     12.51%    100.00% (Unspecified)
system.caches.L2Cache_Controller.IM.Mem_Data::total       673867                       (Unspecified)
system.caches.L2Cache_Controller.SS_MB.L1_GETS |           1      0.03%      0.03% |           2      0.06%      0.09% |           3      0.09%      0.17% |           0      0.00%      0.17% |           0      0.00%      0.17% |           0      0.00%      0.17% |        3442     99.74%     99.91% |           3      0.09%    100.00% (Unspecified)
system.caches.L2Cache_Controller.SS_MB.L1_GETS::total         3451                       (Unspecified)
system.caches.L2Cache_Controller.SS_MB.L1_GETX |           1    100.00%    100.00% |           0      0.00%    100.00% |           0      0.00%    100.00% |           0      0.00%    100.00% |           0      0.00%    100.00% |           0      0.00%    100.00% |           0      0.00%    100.00% |           0      0.00%    100.00% (Unspecified)
system.caches.L2Cache_Controller.SS_MB.L1_GETX::total            1                       (Unspecified)
system.caches.L2Cache_Controller.SS_MB.L1_UPGRADE |           2      5.56%      5.56% |           6     16.67%     22.22% |           3      8.33%     30.56% |           7     19.44%     50.00% |           6     16.67%     66.67% |           5     13.89%     80.56% |           2      5.56%     86.11% |           5     13.89%    100.00% (Unspecified)
[...]
system.timingCpu0.exec_context.thread_0.statExecutedInstType::IprAccess            0      0.00%    100.00% # Class of executed instruction. (Count)
system.timingCpu0.exec_context.thread_0.statExecutedInstType::InstPrefetch            0      0.00%    100.00% # Class of executed instruction. (Count)
system.timingCpu0.exec_context.thread_0.statExecutedInstType::total    925453573                       # Class of executed instruction. (Count)
system.timingCpu0.mmu.dtb.rdAccesses        155900966                       # TLB accesses on read requests (Count)
system.timingCpu0.mmu.dtb.wrAccesses         16625166                       # TLB accesses on write requests (Count)
system.timingCpu0.mmu.dtb.rdMisses            1740311                       # TLB misses on read requests (Count)
system.timingCpu0.mmu.dtb.wrMisses               8167                       # TLB misses on write requests (Count)
system.timingCpu0.mmu.dtb.walker.power_state.pwrStateResidencyTicks::UNDEFINED 172874326112501                       # Cumulative time (in ticks) in various power states (Tick)
system.timingCpu0.mmu.itb.rdAccesses                0                       # TLB accesses on read requests (Count)
system.timingCpu0.mmu.itb.wrAccesses        746653966                       # TLB accesses on write requests (Count)
system.timingCpu0.mmu.itb.rdMisses                  0                       # TLB misses on read requests (Count)
system.timingCpu0.mmu.itb.wrMisses               5065                       # TLB misses on write requests (Count)
system.timingCpu0.mmu.itb.walker.power_state.pwrStateResidencyTicks::UNDEFINED 172874326112501                       # Cumulative time (in ticks) in various power states (Tick)
system.timingCpu0.power_state.numTransitions            6                       # Number of power state transitions (Count)
system.timingCpu0.power_state.ticksClkGated::samples            3                       # Distribution of time spent in the clock gated state (Tick)
system.timingCpu0.power_state.ticksClkGated::mean 684884916.666667                       # Distribution of time spent in the clock gated state (Tick)
system.timingCpu0.power_state.ticksClkGated::stdev 322411788.408311                       # Distribution of time spent in the clock gated state (Tick)
system.timingCpu0.power_state.ticksClkGated::1000-5e+10            3    100.00%    100.00% # Distribution of time spent in the clock gated state (Tick)
system.timingCpu0.power_state.ticksClkGated::min_value    345816000                       # Distribution of time spent in the clock gated state (Tick)
system.timingCpu0.power_state.ticksClkGated::max_value    987549250                       # Distribution of time spent in the clock gated state (Tick)
system.timingCpu0.power_state.ticksClkGated::total            3                       # Distribution of time spent in the clock gated state (Tick)
system.timingCpu0.power_state.pwrStateResidencyTicks::ON 1247617273751                       # Cumulative time (in ticks) in various power states (Tick)
system.timingCpu0.power_state.pwrStateResidencyTicks::CLK_GATED   2054654750                       # Cumulative time (in ticks) in various power states (Tick)
system.timingCpu0.power_state.pwrStateResidencyTicks::OFF 171624654184000                       # Cumulative time (in ticks) in various power states (Tick)
system.timingCpu0.thread_0.numInsts                 0                       # Number of Instructions committed (Count)
system.timingCpu0.thread_0.numOps                   0                       # Number of Ops committed (Count)
system.timingCpu0.thread_0.numMemRefs               0                       # Number of Memory References (Count)
system.timingCpu1.numCycles                5100010503                       # Number of cpu cycles simulated (Cycle)
system.timingCpu1.numWorkItemsStarted               0                       # Number of work items this cpu started (Count)
system.timingCpu1.numWorkItemsCompleted             0                       # Number of work items this cpu completed (Count)
system.timingCpu1.exec_context.thread_0.numInsts    564903875                       # Number of instructions committed (Count)
system.timingCpu1.exec_context.thread_0.numOps    918818859                       # Number of ops (including micro ops) committed (Count)
system.timingCpu1.exec_context.thread_0.numIntAluAccesses    847077402                       # Number of integer alu accesses (Count)
system.timingCpu1.exec_context.thread_0.numFpAluAccesses     80423421                       # Number of float alu accesses (Count)
system.timingCpu1.exec_context.thread_0.numVecAluAccesses            0                       # Number of vector alu accesses (Count)
system.timingCpu1.exec_context.thread_0.numCallsReturns       249354                       # Number of times a function call or return occured (Count)
system.timingCpu1.exec_context.thread_0.numCondCtrlInsts     92110500                       # Number of instructions that are conditional controls (Count)
system.timingCpu1.exec_context.thread_0.numIntInsts    847077402                       # Number of integer instructions (Count)
system.timingCpu1.exec_context.thread_0.numFpInsts     80423421                       # Number of float instructions (Count)
system.timingCpu1.exec_context.thread_0.numVecInsts            0                       # Number of vector instructions (Count)
system.timingCpu1.exec_context.thread_0.numIntRegReads   1179397354                       # Number of times the integer registers were read (Count)
system.timingCpu1.exec_context.thread_0.numIntRegWrites    619091148                       # Number of times the integer registers were written (Count)
system.timingCpu1.exec_context.thread_0.numFpRegReads     92187257                       # Number of times the floating registers were read (Count)
system.timingCpu1.exec_context.thread_0.numFpRegWrites     74311374                       # Number of times the floating registers were written (Count)
system.timingCpu1.exec_context.thread_0.numVecRegReads            0                       # Number of times the vector registers were read (Count)
system.timingCpu1.exec_context.thread_0.numVecRegWrites            0                       # Number of times the vector registers were written (Count)
system.timingCpu1.exec_context.thread_0.numVecPredRegReads            0                       # Number of times the predicate registers were read (Count)
system.timingCpu1.exec_context.thread_0.numVecPredRegWrites            0                       # Number of times the predicate registers were written (Count)
system.timingCpu1.exec_context.thread_0.numCCRegReads    615426285                       # Number of times the CC registers were read (Count)
system.timingCpu1.exec_context.thread_0.numCCRegWrites    404422131                       # Number of times the CC registers were written (Count)
system.timingCpu1.exec_context.thread_0.numMiscRegReads    361747220                       # Number of times the Misc registers were read (Count)
system.timingCpu1.exec_context.thread_0.numMiscRegWrites        47321                       # Number of times the Misc registers were written (Count)
system.timingCpu1.exec_context.thread_0.numMemRefs    168840352                       # Number of memory refs (Count)
system.timingCpu1.exec_context.thread_0.numLoadInsts    153577775                       # Number of load instructions (Count)
system.timingCpu1.exec_context.thread_0.numStoreInsts     15262577                       # Number of store instructions (Count)
system.timingCpu1.exec_context.thread_0.numIdleCycles 49021941.990311                       # Number of idle cycles (Cycle)
system.timingCpu1.exec_context.thread_0.numBusyCycles 5050988561.009689                       # Number of busy cycles (Cycle)
system.timingCpu1.exec_context.thread_0.notIdleFraction     0.990388                       # Percentage of non-idle cycles (Ratio)
system.timingCpu1.exec_context.thread_0.idleFraction     0.009612                       # Percentage of idle cycles (Ratio)
system.timingCpu1.exec_context.thread_0.numBranches     96438526                       # Number of branches fetched (Count)
system.timingCpu1.exec_context.thread_0.statExecutedInstType::No_OpClass       415771      0.05%      0.05% # Class of executed instruction. (Count)
system.timingCpu1.exec_context.thread_0.statExecutedInstType::IntAlu    691712320     75.28%     75.32% # Class of executed instruction. (Count)
system.timingCpu1.exec_context.thread_0.statExecutedInstType::IntMult        31400      0.00%     75.32% # Class of executed instruction. (Count)
system.timingCpu1.exec_context.thread_0.statExecutedInstType::IntDiv        60816      0.01%     75.33% # Class of executed instruction. (Count)
system.timingCpu1.exec_context.thread_0.statExecutedInstType::FloatAdd     20720068      2.25%     77.59% # Class of executed instruction. (Count)
system.timingCpu1.exec_context.thread_0.statExecutedInstType::FloatCmp            0      0.00%     77.59% # Class of executed instruction. (Count)
system.timingCpu1.exec_context.thread_0.statExecutedInstType::FloatCvt           80      0.00%     77.59% # Class of executed instruction. (Count)
system.timingCpu1.exec_context.thread_0.statExecutedInstType::FloatMult            0      0.00%     77.59% # Class of executed instruction. (Count)
system.timingCpu1.exec_context.thread_0.statExecutedInstType::FloatMultAcc            0      0.00%     77.59% # Class of executed instruction. (Count)
system.timingCpu1.exec_context.thread_0.statExecutedInstType::FloatDiv            0      0.00%     77.59% # Class of executed instruction. (Count)
system.timingCpu1.exec_context.thread_0.statExecutedInstType::FloatMisc            0      0.00%     77.59% # Class of executed instruction. (Count)
system.timingCpu1.exec_context.thread_0.statExecutedInstType::FloatSqrt            0      0.00%     77.59% # Class of executed instruction. (Count)
system.timingCpu1.exec_context.thread_0.statExecutedInstType::SimdAdd          390      0.00%     77.59% # Class of executed instruction. (Count)
system.timingCpu1.exec_context.thread_0.statExecutedInstType::SimdAddAcc            0      0.00%     77.59% # Class of executed instruction. (Count)
system.timingCpu1.exec_context.thread_0.statExecutedInstType::SimdAlu       645801      0.07%     77.66% # Class of executed instruction. (Count)
system.timingCpu1.exec_context.thread_0.statExecutedInstType::SimdCmp            0      0.00%     77.66% # Class of executed instruction. (Count)
system.timingCpu1.exec_context.thread_0.statExecutedInstType::SimdCvt           96      0.00%     77.66% # Class of executed instruction. (Count)
system.timingCpu1.exec_context.thread_0.statExecutedInstType::SimdMisc      3934219      0.43%     78.08% # Class of executed instruction. (Count)
system.timingCpu1.exec_context.thread_0.statExecutedInstType::SimdMult            0      0.00%     78.08% # Class of executed instruction. (Count)
system.timingCpu1.exec_context.thread_0.statExecutedInstType::SimdMultAcc            0      0.00%     78.08% # Class of executed instruction. (Count)
system.timingCpu1.exec_context.thread_0.statExecutedInstType::SimdShift          208      0.00%     78.08% # Class of executed instruction. (Count)
system.timingCpu1.exec_context.thread_0.statExecutedInstType::SimdShiftAcc            0      0.00%     78.08% # Class of executed instruction. (Count)
system.timingCpu1.exec_context.thread_0.statExecutedInstType::SimdDiv            0      0.00%     78.08% # Class of executed instruction. (Count)
system.timingCpu1.exec_context.thread_0.statExecutedInstType::SimdSqrt            0      0.00%     78.08% # Class of executed instruction. (Count)
system.timingCpu1.exec_context.thread_0.statExecutedInstType::SimdFloatAdd     12112377      1.32%     79.40% # Class of executed instruction. (Count)
system.timingCpu1.exec_context.thread_0.statExecutedInstType::SimdFloatAlu            0      0.00%     79.40% # Class of executed instruction. (Count)
system.timingCpu1.exec_context.thread_0.statExecutedInstType::SimdFloatCmp            1      0.00%     79.40% # Class of executed instruction. (Count)
system.timingCpu1.exec_context.thread_0.statExecutedInstType::SimdFloatCvt     12307423      1.34%     80.74% # Class of executed instruction. (Count)
system.timingCpu1.exec_context.thread_0.statExecutedInstType::SimdFloatDiv      4189857      0.46%     81.20% # Class of executed instruction. (Count)
system.timingCpu1.exec_context.thread_0.statExecutedInstType::SimdFloatMisc            0      0.00%     81.20% # Class of executed instruction. (Count)
system.timingCpu1.exec_context.thread_0.statExecutedInstType::SimdFloatMult      3927712      0.43%     81.63% # Class of executed instruction. (Count)
system.timingCpu1.exec_context.thread_0.statExecutedInstType::SimdFloatMultAcc            0      0.00%     81.63% # Class of executed instruction. (Count)
system.timingCpu1.exec_context.thread_0.statExecutedInstType::SimdFloatSqrt            0      0.00%     81.63% # Class of executed instruction. (Count)
system.timingCpu1.exec_context.thread_0.statExecutedInstType::SimdReduceAdd            0      0.00%     81.63% # Class of executed instruction. (Count)
system.timingCpu1.exec_context.thread_0.statExecutedInstType::SimdReduceAlu            0      0.00%     81.63% # Class of executed instruction. (Count)
system.timingCpu1.exec_context.thread_0.statExecutedInstType::SimdReduceCmp            0      0.00%     81.63% # Class of executed instruction. (Count)
system.timingCpu1.exec_context.thread_0.statExecutedInstType::SimdFloatReduceAdd            0      0.00%     81.63% # Class of executed instruction. (Count)
system.timingCpu1.exec_context.thread_0.statExecutedInstType::SimdFloatReduceCmp            0      0.00%     81.63% # Class of executed instruction. (Count)
system.timingCpu1.exec_context.thread_0.statExecutedInstType::SimdAes            0      0.00%     81.63% # Class of executed instruction. (Count)
system.timingCpu1.exec_context.thread_0.statExecutedInstType::SimdAesMix            0      0.00%     81.63% # Class of executed instruction. (Count)
system.timingCpu1.exec_context.thread_0.statExecutedInstType::SimdSha1Hash            0      0.00%     81.63% # Class of executed instruction. (Count)
system.timingCpu1.exec_context.thread_0.statExecutedInstType::SimdSha1Hash2            0      0.00%     81.63% # Class of executed instruction. (Count)
system.timingCpu1.exec_context.thread_0.statExecutedInstType::SimdSha256Hash            0      0.00%     81.63% # Class of executed instruction. (Count)
system.timingCpu1.exec_context.thread_0.statExecutedInstType::SimdSha256Hash2            0      0.00%     81.63% # Class of executed instruction. (Count)
system.timingCpu1.exec_context.thread_0.statExecutedInstType::SimdShaSigma2            0      0.00%     81.63% # Class of executed instruction. (Count)
system.timingCpu1.exec_context.thread_0.statExecutedInstType::SimdShaSigma3            0      0.00%     81.63% # Class of executed instruction. (Count)
system.timingCpu1.exec_context.thread_0.statExecutedInstType::SimdPredAlu            0      0.00%     81.63% # Class of executed instruction. (Count)
system.timingCpu1.exec_context.thread_0.statExecutedInstType::MemRead    132646711     14.44%     96.06% # Class of executed instruction. (Count)
system.timingCpu1.exec_context.thread_0.statExecutedInstType::MemWrite     13608986      1.48%     97.54% # Class of executed instruction. (Count)
system.timingCpu1.exec_context.thread_0.statExecutedInstType::FloatMemRead     20931064      2.28%     99.82% # Class of executed instruction. (Count)
system.timingCpu1.exec_context.thread_0.statExecutedInstType::FloatMemWrite      1653591      0.18%    100.00% # Class of executed instruction. (Count)
system.timingCpu1.exec_context.thread_0.statExecutedInstType::IprAccess            0      0.00%    100.00% # Class of executed instruction. (Count)
system.timingCpu1.exec_context.thread_0.statExecutedInstType::InstPrefetch            0      0.00%    100.00% # Class of executed instruction. (Count)
system.timingCpu1.exec_context.thread_0.statExecutedInstType::total    918898891                       # Class of executed instruction. (Count)
system.timingCpu1.mmu.dtb.rdAccesses        155378037                       # TLB accesses on read requests (Count)
system.timingCpu1.mmu.dtb.wrAccesses         15270250                       # TLB accesses on write requests (Count)
system.timingCpu1.mmu.dtb.rdMisses            1765090                       # TLB misses on read requests (Count)
system.timingCpu1.mmu.dtb.wrMisses               8063                       # TLB misses on write requests (Count)
system.timingCpu1.mmu.dtb.walker.power_state.pwrStateResidencyTicks::UNDEFINED 172874326112501                       # Cumulative time (in ticks) in various power states (Tick)
system.timingCpu1.mmu.itb.rdAccesses                0                       # TLB accesses on read requests (Count)
system.timingCpu1.mmu.itb.wrAccesses        742887826                       # TLB accesses on write requests (Count)
system.timingCpu1.mmu.itb.rdMisses                  0                       # TLB misses on read requests (Count)
system.timingCpu1.mmu.itb.wrMisses               3848                       # TLB misses on write requests (Count)
system.timingCpu1.mmu.itb.walker.power_state.pwrStateResidencyTicks::UNDEFINED 172874326112501                       # Cumulative time (in ticks) in various power states (Tick)
system.timingCpu1.power_state.numTransitions           28                       # Number of power state transitions (Count)
system.timingCpu1.power_state.ticksClkGated::samples           14                       # Distribution of time spent in the clock gated state (Tick)
system.timingCpu1.power_state.ticksClkGated::mean 875391821.428571                       # Distribution of time spent in the clock gated state (Tick)
system.timingCpu1.power_state.ticksClkGated::stdev 309873039.675486                       # Distribution of time spent in the clock gated state (Tick)
system.timingCpu1.power_state.ticksClkGated::1000-5e+10           14    100.00%    100.00% # Distribution of time spent in the clock gated state (Tick)
system.timingCpu1.power_state.ticksClkGated::min_value     69706000                       # Distribution of time spent in the clock gated state (Tick)
system.timingCpu1.power_state.ticksClkGated::max_value    998663000                       # Distribution of time spent in the clock gated state (Tick)
system.timingCpu1.power_state.ticksClkGated::total           14                       # Distribution of time spent in the clock gated state (Tick)
system.timingCpu1.power_state.pwrStateResidencyTicks::ON 1260140333001                       # Cumulative time (in ticks) in various power states (Tick)
system.timingCpu1.power_state.pwrStateResidencyTicks::CLK_GATED  12255485500                       # Cumulative time (in ticks) in various power states (Tick)
system.timingCpu1.power_state.pwrStateResidencyTicks::OFF 171601930294000                       # Cumulative time (in ticks) in various power states (Tick)
system.timingCpu1.thread_0.numInsts                 0                       # Number of Instructions committed (Count)
system.timingCpu1.thread_0.numOps                   0                       # Number of Ops committed (Count)
system.timingCpu1.thread_0.numMemRefs               0                       # Number of Memory References (Count)
system.workload.inst.arm                            0                       # number of arm instructions executed (Count)
system.workload.inst.quiesce                        0                       # number of quiesce instructions executed (Count)

---------- End Simulation Statistics   ----------
