
---------- Begin Simulation Statistics ----------
simSeconds                                          5                       # Number of seconds simulated (Second)
simTicks                                 5000000000000                       # Number of ticks simulated (Tick)
finalTick                                23387763875000                       # Number of ticks from beginning of simulation (restored from checkpoints and never reset) (Tick)
simFreq                                  1000000000000                       # The number of ticks per simulated second ((Tick/Second))
hostSeconds                                  28822.50                       # Real time elapsed on the host (Second)
hostTickRate                                173475583                       # The number of ticks simulated per host second (ticks/s) ((Tick/Second))
hostMemory                                   15067512                       # Number of bytes of host memory used (Byte)
simInsts                                   9782485934                       # Number of instructions simulated (Count)
simOps                                    15760706748                       # Number of ops (including micro ops) simulated (Count)
hostInstRate                                   339404                       # Simulator instruction rate (inst/s) ((Count/Second))
hostOpRate                                     546820                       # Simulator op (including micro ops) rate (op/s) ((Count/Second))
system.atomicCpu0.numCycles                         0                       # Number of cpu cycles simulated (Cycle)
system.atomicCpu0.numWorkItemsStarted               0                       # Number of work items this cpu started (Count)
system.atomicCpu0.numWorkItemsCompleted             0                       # Number of work items this cpu completed (Count)
system.atomicCpu0.exec_context.thread_0.numInsts            0                       # Number of instructions committed (Count)
system.atomicCpu0.exec_context.thread_0.numOps            0                       # Number of ops (including micro ops) committed (Count)
system.atomicCpu0.exec_context.thread_0.numIntAluAccesses            0                       # Number of integer alu accesses (Count)
system.atomicCpu0.exec_context.thread_0.numFpAluAccesses            0                       # Number of float alu accesses (Count)
system.atomicCpu0.exec_context.thread_0.numVecAluAccesses            0                       # Number of vector alu accesses (Count)
system.atomicCpu0.exec_context.thread_0.numCallsReturns            0                       # Number of times a function call or return occured (Count)
system.atomicCpu0.exec_context.thread_0.numCondCtrlInsts            0                       # Number of instructions that are conditional controls (Count)
system.atomicCpu0.exec_context.thread_0.numIntInsts            0                       # Number of integer instructions (Count)
system.atomicCpu0.exec_context.thread_0.numFpInsts            0                       # Number of float instructions (Count)
system.atomicCpu0.exec_context.thread_0.numVecInsts            0                       # Number of vector instructions (Count)
system.atomicCpu0.exec_context.thread_0.numIntRegReads            0                       # Number of times the integer registers were read (Count)
system.atomicCpu0.exec_context.thread_0.numIntRegWrites            0                       # Number of times the integer registers were written (Count)
system.atomicCpu0.exec_context.thread_0.numFpRegReads            0                       # Number of times the floating registers were read (Count)
system.atomicCpu0.exec_context.thread_0.numFpRegWrites            0                       # Number of times the floating registers were written (Count)
system.atomicCpu0.exec_context.thread_0.numVecRegReads            0                       # Number of times the vector registers were read (Count)
system.atomicCpu0.exec_context.thread_0.numVecRegWrites            0                       # Number of times the vector registers were written (Count)
system.atomicCpu0.exec_context.thread_0.numVecPredRegReads            0                       # Number of times the predicate registers were read (Count)
system.atomicCpu0.exec_context.thread_0.numVecPredRegWrites            0                       # Number of times the predicate registers were written (Count)
system.atomicCpu0.exec_context.thread_0.numMiscRegReads            0                       # Number of times the Misc registers were read (Count)
system.atomicCpu0.exec_context.thread_0.numMiscRegWrites            0                       # Number of times the Misc registers were written (Count)
system.atomicCpu0.exec_context.thread_0.numMemRefs            0                       # Number of memory refs (Count)
system.atomicCpu0.exec_context.thread_0.numLoadInsts            0                       # Number of load instructions (Count)
system.atomicCpu0.exec_context.thread_0.numStoreInsts            0                       # Number of store instructions (Count)
system.atomicCpu0.exec_context.thread_0.numIdleCycles            0                       # Number of idle cycles (Cycle)
system.atomicCpu0.exec_context.thread_0.numBusyCycles            0                       # Number of busy cycles (Cycle)
system.atomicCpu0.exec_context.thread_0.notIdleFraction            0                       # Percentage of non-idle cycles (Ratio)
system.atomicCpu0.exec_context.thread_0.idleFraction            1                       # Percentage of idle cycles (Ratio)
system.atomicCpu0.exec_context.thread_0.statExecutedInstType::No_OpClass            0                       # Class of executed instruction. (Count)
system.atomicCpu0.exec_context.thread_0.statExecutedInstType::IntAlu            0                       # Class of executed instruction. (Count)
system.atomicCpu0.exec_context.thread_0.statExecutedInstType::IntMult            0                       # Class of executed instruction. (Count)
system.atomicCpu0.exec_context.thread_0.statExecutedInstType::IntDiv            0                       # Class of executed instruction. (Count)
system.atomicCpu0.exec_context.thread_0.statExecutedInstType::FloatAdd            0                       # Class of executed instruction. (Count)
system.atomicCpu0.exec_context.thread_0.statExecutedInstType::FloatCmp            0                       # Class of executed instruction. (Count)
system.atomicCpu0.exec_context.thread_0.statExecutedInstType::FloatCvt            0                       # Class of executed instruction. (Count)
system.atomicCpu0.exec_context.thread_0.statExecutedInstType::FloatMult            0                       # Class of executed instruction. (Count)
system.atomicCpu0.exec_context.thread_0.statExecutedInstType::FloatMultAcc            0                       # Class of executed instruction. (Count)
system.atomicCpu0.exec_context.thread_0.statExecutedInstType::FloatDiv            0                       # Class of executed instruction. (Count)
system.atomicCpu0.exec_context.thread_0.statExecutedInstType::FloatMisc            0                       # Class of executed instruction. (Count)
system.atomicCpu0.exec_context.thread_0.statExecutedInstType::FloatSqrt            0                       # Class of executed instruction. (Count)
system.atomicCpu0.exec_context.thread_0.statExecutedInstType::SimdAdd            0                       # Class of executed instruction. (Count)
system.atomicCpu0.exec_context.thread_0.statExecutedInstType::SimdAddAcc            0                       # Class of executed instruction. (Count)
system.atomicCpu0.exec_context.thread_0.statExecutedInstType::SimdAlu            0                       # Class of executed instruction. (Count)
system.atomicCpu0.exec_context.thread_0.statExecutedInstType::SimdCmp            0                       # Class of executed instruction. (Count)
system.atomicCpu0.exec_context.thread_0.statExecutedInstType::SimdCvt            0                       # Class of executed instruction. (Count)
system.atomicCpu0.exec_context.thread_0.statExecutedInstType::SimdMisc            0                       # Class of executed instruction. (Count)
system.atomicCpu0.exec_context.thread_0.statExecutedInstType::SimdMult            0                       # Class of executed instruction. (Count)
system.atomicCpu0.exec_context.thread_0.statExecutedInstType::SimdMultAcc            0                       # Class of executed instruction. (Count)
system.atomicCpu0.exec_context.thread_0.statExecutedInstType::SimdShift            0                       # Class of executed instruction. (Count)
system.atomicCpu0.exec_context.thread_0.statExecutedInstType::SimdShiftAcc            0                       # Class of executed instruction. (Count)
system.atomicCpu0.exec_context.thread_0.statExecutedInstType::SimdDiv            0                       # Class of executed instruction. (Count)
system.atomicCpu0.exec_context.thread_0.statExecutedInstType::SimdSqrt            0                       # Class of executed instruction. (Count)
system.atomicCpu0.exec_context.thread_0.statExecutedInstType::SimdFloatAdd            0                       # Class of executed instruction. (Count)
system.atomicCpu0.exec_context.thread_0.statExecutedInstType::SimdFloatAlu            0                       # Class of executed instruction. (Count)
system.atomicCpu0.exec_context.thread_0.statExecutedInstType::SimdFloatCmp            0                       # Class of executed instruction. (Count)
system.atomicCpu0.exec_context.thread_0.statExecutedInstType::SimdFloatCvt            0                       # Class of executed instruction. (Count)
system.atomicCpu0.exec_context.thread_0.statExecutedInstType::SimdFloatDiv            0                       # Class of executed instruction. (Count)
system.atomicCpu0.exec_context.thread_0.statExecutedInstType::SimdFloatMisc            0                       # Class of executed instruction. (Count)
system.atomicCpu0.exec_context.thread_0.statExecutedInstType::SimdFloatMult            0                       # Class of executed instruction. (Count)
system.atomicCpu0.exec_context.thread_0.statExecutedInstType::SimdFloatMultAcc            0                       # Class of executed instruction. (Count)
system.atomicCpu0.exec_context.thread_0.statExecutedInstType::SimdFloatSqrt            0                       # Class of executed instruction. (Count)
system.atomicCpu0.exec_context.thread_0.statExecutedInstType::SimdReduceAdd            0                       # Class of executed instruction. (Count)
system.atomicCpu0.exec_context.thread_0.statExecutedInstType::SimdReduceAlu            0                       # Class of executed instruction. (Count)
system.atomicCpu0.exec_context.thread_0.statExecutedInstType::SimdReduceCmp            0                       # Class of executed instruction. (Count)
system.atomicCpu0.exec_context.thread_0.statExecutedInstType::SimdFloatReduceAdd            0                       # Class of executed instruction. (Count)
system.atomicCpu0.exec_context.thread_0.statExecutedInstType::SimdFloatReduceCmp            0                       # Class of executed instruction. (Count)
system.atomicCpu0.exec_context.thread_0.statExecutedInstType::SimdAes            0                       # Class of executed instruction. (Count)
system.atomicCpu0.exec_context.thread_0.statExecutedInstType::SimdAesMix            0                       # Class of executed instruction. (Count)
system.atomicCpu0.exec_context.thread_0.statExecutedInstType::SimdSha1Hash            0                       # Class of executed instruction. (Count)
system.atomicCpu0.exec_context.thread_0.statExecutedInstType::SimdSha1Hash2            0                       # Class of executed instruction. (Count)
system.atomicCpu0.exec_context.thread_0.statExecutedInstType::SimdSha256Hash            0                       # Class of executed instruction. (Count)
system.atomicCpu0.exec_context.thread_0.statExecutedInstType::SimdSha256Hash2            0                       # Class of executed instruction. (Count)
system.atomicCpu0.exec_context.thread_0.statExecutedInstType::SimdShaSigma2            0                       # Class of executed instruction. (Count)
system.atomicCpu0.exec_context.thread_0.statExecutedInstType::SimdShaSigma3            0                       # Class of executed instruction. (Count)
system.atomicCpu0.exec_context.thread_0.statExecutedInstType::SimdPredAlu            0                       # Class of executed instruction. (Count)
system.atomicCpu0.exec_context.thread_0.statExecutedInstType::MemRead            0                       # Class of executed instruction. (Count)
system.atomicCpu0.exec_context.thread_0.statExecutedInstType::MemWrite            0                       # Class of executed instruction. (Count)
system.atomicCpu0.exec_context.thread_0.statExecutedInstType::FloatMemRead            0                       # Class of executed instruction. (Count)
system.atomicCpu0.exec_context.thread_0.statExecutedInstType::FloatMemWrite            0                       # Class of executed instruction. (Count)
system.atomicCpu0.exec_context.thread_0.statExecutedInstType::IprAccess            0                       # Class of executed instruction. (Count)
system.atomicCpu0.exec_context.thread_0.statExecutedInstType::InstPrefetch            0                       # Class of executed instruction. (Count)
system.atomicCpu0.exec_context.thread_0.statExecutedInstType::total            0                       # Class of executed instruction. (Count)
system.atomicCpu0.mmu.dtb.rdAccesses                0                       # TLB accesses on read requests (Count)
system.atomicCpu0.mmu.dtb.wrAccesses                0                       # TLB accesses on write requests (Count)
system.atomicCpu0.mmu.dtb.rdMisses                  0                       # TLB misses on read requests (Count)
system.atomicCpu0.mmu.dtb.wrMisses                  0                       # TLB misses on write requests (Count)
system.atomicCpu0.mmu.dtb.walker.power_state.pwrStateResidencyTicks::UNDEFINED 23387763875000                       # Cumulative time (in ticks) in various power states (Tick)
system.atomicCpu0.mmu.itb.rdAccesses                0                       # TLB accesses on read requests (Count)
system.atomicCpu0.mmu.itb.wrAccesses                0                       # TLB accesses on write requests (Count)
system.atomicCpu0.mmu.itb.rdMisses                  0                       # TLB misses on read requests (Count)
system.atomicCpu0.mmu.itb.wrMisses                  0                       # TLB misses on write requests (Count)
system.atomicCpu0.mmu.itb.walker.power_state.pwrStateResidencyTicks::UNDEFINED 23387763875000                       # Cumulative time (in ticks) in various power states (Tick)
system.atomicCpu0.power_state.pwrStateResidencyTicks::OFF 23387763875000                       # Cumulative time (in ticks) in various power states (Tick)
system.atomicCpu0.thread_0.numInsts                 0                       # Number of Instructions committed (Count)
system.atomicCpu0.thread_0.numOps                   0                       # Number of Ops committed (Count)
system.atomicCpu0.thread_0.numMemRefs               0                       # Number of Memory References (Count)
system.atomicCpu1.numCycles                         0                       # Number of cpu cycles simulated (Cycle)
system.atomicCpu1.numWorkItemsStarted               0                       # Number of work items this cpu started (Count)
system.atomicCpu1.numWorkItemsCompleted             0                       # Number of work items this cpu completed (Count)
system.atomicCpu1.exec_context.thread_0.numInsts            0                       # Number of instructions committed (Count)
system.atomicCpu1.exec_context.thread_0.numOps            0                       # Number of ops (including micro ops) committed (Count)
system.atomicCpu1.exec_context.thread_0.numIntAluAccesses            0                       # Number of integer alu accesses (Count)
system.atomicCpu1.exec_context.thread_0.numFpAluAccesses            0                       # Number of float alu accesses (Count)
system.atomicCpu1.exec_context.thread_0.numVecAluAccesses            0                       # Number of vector alu accesses (Count)
system.atomicCpu1.exec_context.thread_0.numCallsReturns            0                       # Number of times a function call or return occured (Count)
system.atomicCpu1.exec_context.thread_0.numCondCtrlInsts            0                       # Number of instructions that are conditional controls (Count)
system.atomicCpu1.exec_context.thread_0.numIntInsts            0                       # Number of integer instructions (Count)
system.atomicCpu1.exec_context.thread_0.numFpInsts            0                       # Number of float instructions (Count)
system.atomicCpu1.exec_context.thread_0.numVecInsts            0                       # Number of vector instructions (Count)
system.atomicCpu1.exec_context.thread_0.numIntRegReads            0                       # Number of times the integer registers were read (Count)
system.atomicCpu1.exec_context.thread_0.numIntRegWrites            0                       # Number of times the integer registers were written (Count)
system.atomicCpu1.exec_context.thread_0.numFpRegReads            0                       # Number of times the floating registers were read (Count)
system.atomicCpu1.exec_context.thread_0.numFpRegWrites            0                       # Number of times the floating registers were written (Count)
system.atomicCpu1.exec_context.thread_0.numVecRegReads            0                       # Number of times the vector registers were read (Count)
system.atomicCpu1.exec_context.thread_0.numVecRegWrites            0                       # Number of times the vector registers were written (Count)
system.atomicCpu1.exec_context.thread_0.numVecPredRegReads            0                       # Number of times the predicate registers were read (Count)
system.atomicCpu1.exec_context.thread_0.numVecPredRegWrites            0                       # Number of times the predicate registers were written (Count)
system.atomicCpu1.exec_context.thread_0.numMiscRegReads            0                       # Number of times the Misc registers were read (Count)
system.atomicCpu1.exec_context.thread_0.numMiscRegWrites            0                       # Number of times the Misc registers were written (Count)
system.atomicCpu1.exec_context.thread_0.numMemRefs            0                       # Number of memory refs (Count)
system.atomicCpu1.exec_context.thread_0.numLoadInsts            0                       # Number of load instructions (Count)
system.atomicCpu1.exec_context.thread_0.numStoreInsts            0                       # Number of store instructions (Count)
system.atomicCpu1.exec_context.thread_0.numIdleCycles            0                       # Number of idle cycles (Cycle)
system.atomicCpu1.exec_context.thread_0.numBusyCycles            0                       # Number of busy cycles (Cycle)
system.atomicCpu1.exec_context.thread_0.notIdleFraction            0                       # Percentage of non-idle cycles (Ratio)
system.atomicCpu1.exec_context.thread_0.idleFraction            1                       # Percentage of idle cycles (Ratio)
system.atomicCpu1.exec_context.thread_0.statExecutedInstType::No_OpClass            0                       # Class of executed instruction. (Count)
system.atomicCpu1.exec_context.thread_0.statExecutedInstType::IntAlu            0                       # Class of executed instruction. (Count)
system.atomicCpu1.exec_context.thread_0.statExecutedInstType::IntMult            0                       # Class of executed instruction. (Count)
system.atomicCpu1.exec_context.thread_0.statExecutedInstType::IntDiv            0                       # Class of executed instruction. (Count)
system.atomicCpu1.exec_context.thread_0.statExecutedInstType::FloatAdd            0                       # Class of executed instruction. (Count)
system.atomicCpu1.exec_context.thread_0.statExecutedInstType::FloatCmp            0                       # Class of executed instruction. (Count)
system.atomicCpu1.exec_context.thread_0.statExecutedInstType::FloatCvt            0                       # Class of executed instruction. (Count)
system.atomicCpu1.exec_context.thread_0.statExecutedInstType::FloatMult            0                       # Class of executed instruction. (Count)
system.atomicCpu1.exec_context.thread_0.statExecutedInstType::FloatMultAcc            0                       # Class of executed instruction. (Count)
system.atomicCpu1.exec_context.thread_0.statExecutedInstType::FloatDiv            0                       # Class of executed instruction. (Count)
system.atomicCpu1.exec_context.thread_0.statExecutedInstType::FloatMisc            0                       # Class of executed instruction. (Count)
system.atomicCpu1.exec_context.thread_0.statExecutedInstType::FloatSqrt            0                       # Class of executed instruction. (Count)
system.atomicCpu1.exec_context.thread_0.statExecutedInstType::SimdAdd            0                       # Class of executed instruction. (Count)
system.atomicCpu1.exec_context.thread_0.statExecutedInstType::SimdAddAcc            0                       # Class of executed instruction. (Count)
system.atomicCpu1.exec_context.thread_0.statExecutedInstType::SimdAlu            0                       # Class of executed instruction. (Count)
system.atomicCpu1.exec_context.thread_0.statExecutedInstType::SimdCmp            0                       # Class of executed instruction. (Count)
system.atomicCpu1.exec_context.thread_0.statExecutedInstType::SimdCvt            0                       # Class of executed instruction. (Count)
system.atomicCpu1.exec_context.thread_0.statExecutedInstType::SimdMisc            0                       # Class of executed instruction. (Count)
system.atomicCpu1.exec_context.thread_0.statExecutedInstType::SimdMult            0                       # Class of executed instruction. (Count)
system.atomicCpu1.exec_context.thread_0.statExecutedInstType::SimdMultAcc            0                       # Class of executed instruction. (Count)
system.atomicCpu1.exec_context.thread_0.statExecutedInstType::SimdShift            0                       # Class of executed instruction. (Count)
system.atomicCpu1.exec_context.thread_0.statExecutedInstType::SimdShiftAcc            0                       # Class of executed instruction. (Count)
system.atomicCpu1.exec_context.thread_0.statExecutedInstType::SimdDiv            0                       # Class of executed instruction. (Count)
system.atomicCpu1.exec_context.thread_0.statExecutedInstType::SimdSqrt            0                       # Class of executed instruction. (Count)
system.atomicCpu1.exec_context.thread_0.statExecutedInstType::SimdFloatAdd            0                       # Class of executed instruction. (Count)
system.atomicCpu1.exec_context.thread_0.statExecutedInstType::SimdFloatAlu            0                       # Class of executed instruction. (Count)
system.atomicCpu1.exec_context.thread_0.statExecutedInstType::SimdFloatCmp            0                       # Class of executed instruction. (Count)
system.atomicCpu1.exec_context.thread_0.statExecutedInstType::SimdFloatCvt            0                       # Class of executed instruction. (Count)
system.atomicCpu1.exec_context.thread_0.statExecutedInstType::SimdFloatDiv            0                       # Class of executed instruction. (Count)
system.atomicCpu1.exec_context.thread_0.statExecutedInstType::SimdFloatMisc            0                       # Class of executed instruction. (Count)
system.atomicCpu1.exec_context.thread_0.statExecutedInstType::SimdFloatMult            0                       # Class of executed instruction. (Count)
system.atomicCpu1.exec_context.thread_0.statExecutedInstType::SimdFloatMultAcc            0                       # Class of executed instruction. (Count)
system.atomicCpu1.exec_context.thread_0.statExecutedInstType::SimdFloatSqrt            0                       # Class of executed instruction. (Count)
system.atomicCpu1.exec_context.thread_0.statExecutedInstType::SimdReduceAdd            0                       # Class of executed instruction. (Count)
system.atomicCpu1.exec_context.thread_0.statExecutedInstType::SimdReduceAlu            0                       # Class of executed instruction. (Count)
system.atomicCpu1.exec_context.thread_0.statExecutedInstType::SimdReduceCmp            0                       # Class of executed instruction. (Count)
system.atomicCpu1.exec_context.thread_0.statExecutedInstType::SimdFloatReduceAdd            0                       # Class of executed instruction. (Count)
system.atomicCpu1.exec_context.thread_0.statExecutedInstType::SimdFloatReduceCmp            0                       # Class of executed instruction. (Count)
system.atomicCpu1.exec_context.thread_0.statExecutedInstType::SimdAes            0                       # Class of executed instruction. (Count)
system.atomicCpu1.exec_context.thread_0.statExecutedInstType::SimdAesMix            0                       # Class of executed instruction. (Count)
system.atomicCpu1.exec_context.thread_0.statExecutedInstType::SimdSha1Hash            0                       # Class of executed instruction. (Count)
system.atomicCpu1.exec_context.thread_0.statExecutedInstType::SimdSha1Hash2            0                       # Class of executed instruction. (Count)
system.atomicCpu1.exec_context.thread_0.statExecutedInstType::SimdSha256Hash            0                       # Class of executed instruction. (Count)
system.atomicCpu1.exec_context.thread_0.statExecutedInstType::SimdSha256Hash2            0                       # Class of executed instruction. (Count)
system.atomicCpu1.exec_context.thread_0.statExecutedInstType::SimdShaSigma2            0                       # Class of executed instruction. (Count)
system.atomicCpu1.exec_context.thread_0.statExecutedInstType::SimdShaSigma3            0                       # Class of executed instruction. (Count)
system.atomicCpu1.exec_context.thread_0.statExecutedInstType::SimdPredAlu            0                       # Class of executed instruction. (Count)
system.atomicCpu1.exec_context.thread_0.statExecutedInstType::MemRead            0                       # Class of executed instruction. (Count)
system.atomicCpu1.exec_context.thread_0.statExecutedInstType::MemWrite            0                       # Class of executed instruction. (Count)
system.atomicCpu1.exec_context.thread_0.statExecutedInstType::FloatMemRead            0                       # Class of executed instruction. (Count)
system.atomicCpu1.exec_context.thread_0.statExecutedInstType::FloatMemWrite            0                       # Class of executed instruction. (Count)
system.atomicCpu1.exec_context.thread_0.statExecutedInstType::IprAccess            0                       # Class of executed instruction. (Count)
system.atomicCpu1.exec_context.thread_0.statExecutedInstType::InstPrefetch            0                       # Class of executed instruction. (Count)
system.atomicCpu1.exec_context.thread_0.statExecutedInstType::total            0                       # Class of executed instruction. (Count)
system.atomicCpu1.mmu.dtb.rdAccesses                0                       # TLB accesses on read requests (Count)
system.atomicCpu1.mmu.dtb.wrAccesses                0                       # TLB accesses on write requests (Count)
system.atomicCpu1.mmu.dtb.rdMisses                  0                       # TLB misses on read requests (Count)
system.atomicCpu1.mmu.dtb.wrMisses                  0                       # TLB misses on write requests (Count)
system.atomicCpu1.mmu.dtb.walker.power_state.pwrStateResidencyTicks::UNDEFINED 23387763875000                       # Cumulative time (in ticks) in various power states (Tick)
system.atomicCpu1.mmu.itb.rdAccesses                0                       # TLB accesses on read requests (Count)
system.atomicCpu1.mmu.itb.wrAccesses                0                       # TLB accesses on write requests (Count)
system.atomicCpu1.mmu.itb.rdMisses                  0                       # TLB misses on read requests (Count)
system.atomicCpu1.mmu.itb.wrMisses                  0                       # TLB misses on write requests (Count)
system.atomicCpu1.mmu.itb.walker.power_state.pwrStateResidencyTicks::UNDEFINED 23387763875000                       # Cumulative time (in ticks) in various power states (Tick)
system.atomicCpu1.power_state.pwrStateResidencyTicks::OFF 23387763875000                       # Cumulative time (in ticks) in various power states (Tick)
system.atomicCpu1.thread_0.numInsts                 0                       # Number of Instructions committed (Count)
system.atomicCpu1.thread_0.numOps                   0                       # Number of Ops committed (Count)
system.atomicCpu1.thread_0.numMemRefs               0                       # Number of Memory References (Count)
system.caches.delayHistogram::bucket_size          128                       # delay histogram for all message (Unspecified)
system.caches.delayHistogram::max_bucket         1279                       # delay histogram for all message (Unspecified)
system.caches.delayHistogram::samples       172598938                       # delay histogram for all message (Unspecified)
system.caches.delayHistogram::mean           0.940642                       # delay histogram for all message (Unspecified)
system.caches.delayHistogram::stdev          2.587783                       # delay histogram for all message (Unspecified)
system.caches.delayHistogram             |   172598930    100.00%    100.00% |           0      0.00%    100.00% |           2      0.00%    100.00% |           2      0.00%    100.00% |           3      0.00%    100.00% |           1      0.00%    100.00% |           0      0.00%    100.00% |           0      0.00%    100.00% |           0      0.00%    100.00% |           0      0.00%    100.00% # delay histogram for all message (Unspecified)
system.caches.delayHistogram::total         172598938                       # delay histogram for all message (Unspecified)
system.caches.m_outstandReqHistSeqr::bucket_size            1                       (Unspecified)
system.caches.m_outstandReqHistSeqr::max_bucket            9                       (Unspecified)
system.caches.m_outstandReqHistSeqr::samples  14006777901                       (Unspecified)
system.caches.m_outstandReqHistSeqr::mean            1                       (Unspecified)
system.caches.m_outstandReqHistSeqr::gmean            1                       (Unspecified)
system.caches.m_outstandReqHistSeqr      |           0      0.00%      0.00% | 14006777901    100.00%    100.00% |           0      0.00%    100.00% |           0      0.00%    100.00% |           0      0.00%    100.00% |           0      0.00%    100.00% |           0      0.00%    100.00% |           0      0.00%    100.00% |           0      0.00%    100.00% |           0      0.00%    100.00% (Unspecified)
system.caches.m_outstandReqHistSeqr::total  14006777901                       (Unspecified)
system.caches.m_latencyHistSeqr::bucket_size          512                       (Unspecified)
system.caches.m_latencyHistSeqr::max_bucket         5119                       (Unspecified)
system.caches.m_latencyHistSeqr::samples  14006777900                       (Unspecified)
system.caches.m_latencyHistSeqr::mean        1.853614                       (Unspecified)
system.caches.m_latencyHistSeqr::gmean       1.010609                       (Unspecified)
system.caches.m_latencyHistSeqr::stdev      23.584622                       (Unspecified)
system.caches.m_latencyHistSeqr          | 13996146784     99.92%     99.92% |    10029487      0.07%    100.00% |      120876      0.00%    100.00% |      431700      0.00%    100.00% |       46357      0.00%    100.00% |        2689      0.00%    100.00% |           4      0.00%    100.00% |           1      0.00%    100.00% |           1      0.00%    100.00% |           1      0.00%    100.00% (Unspecified)
system.caches.m_latencyHistSeqr::total    14006777900                       (Unspecified)
system.caches.m_hitLatencyHistSeqr::bucket_size            1                       (Unspecified)
system.caches.m_hitLatencyHistSeqr::max_bucket            9                       (Unspecified)
system.caches.m_hitLatencyHistSeqr::samples  13980558531                       (Unspecified)
system.caches.m_hitLatencyHistSeqr::mean            1                       (Unspecified)
system.caches.m_hitLatencyHistSeqr::gmean            1                       (Unspecified)
system.caches.m_hitLatencyHistSeqr       |           0      0.00%      0.00% | 13980558531    100.00%    100.00% |           0      0.00%    100.00% |           0      0.00%    100.00% |           0      0.00%    100.00% |           0      0.00%    100.00% |           0      0.00%    100.00% |           0      0.00%    100.00% |           0      0.00%    100.00% |           0      0.00%    100.00% (Unspecified)
system.caches.m_hitLatencyHistSeqr::total  13980558531                       (Unspecified)
system.caches.m_missLatencyHistSeqr::bucket_size          512                       (Unspecified)
system.caches.m_missLatencyHistSeqr::max_bucket         5119                       (Unspecified)
system.caches.m_missLatencyHistSeqr::samples     26219369                       (Unspecified)
system.caches.m_missLatencyHistSeqr::mean   457.013349                       (Unspecified)
system.caches.m_missLatencyHistSeqr::gmean   280.733219                       (Unspecified)
system.caches.m_missLatencyHistSeqr::stdev   299.315551                       (Unspecified)
system.caches.m_missLatencyHistSeqr      |    15588253     59.45%     59.45% |    10029487     38.25%     97.71% |      120876      0.46%     98.17% |      431700      1.65%     99.81% |       46357      0.18%     99.99% |        2689      0.01%    100.00% |           4      0.00%    100.00% |           1      0.00%    100.00% |           1      0.00%    100.00% |           1      0.00%    100.00% (Unspecified)
system.caches.m_missLatencyHistSeqr::total     26219369                       (Unspecified)
system.caches.delayVCHist.vnet_0::bucket_size          128                       # delay histogram for vnet_0 (Unspecified)
system.caches.delayVCHist.vnet_0::max_bucket         1279                       # delay histogram for vnet_0 (Unspecified)
system.caches.delayVCHist.vnet_0::samples     77486355                       # delay histogram for vnet_0 (Unspecified)
system.caches.delayVCHist.vnet_0::mean       2.094722                       # delay histogram for vnet_0 (Unspecified)
system.caches.delayVCHist.vnet_0::stdev      3.535017                       # delay histogram for vnet_0 (Unspecified)
system.caches.delayVCHist.vnet_0         |    77486347    100.00%    100.00% |           0      0.00%    100.00% |           2      0.00%    100.00% |           2      0.00%    100.00% |           3      0.00%    100.00% |           1      0.00%    100.00% |           0      0.00%    100.00% |           0      0.00%    100.00% |           0      0.00%    100.00% |           0      0.00%    100.00% # delay histogram for vnet_0 (Unspecified)
system.caches.delayVCHist.vnet_0::total      77486355                       # delay histogram for vnet_0 (Unspecified)
system.caches.delayVCHist.vnet_1::bucket_size            2                       # delay histogram for vnet_1 (Unspecified)
system.caches.delayVCHist.vnet_1::max_bucket           19                       # delay histogram for vnet_1 (Unspecified)
system.caches.delayVCHist.vnet_1::samples     94875933                       # delay histogram for vnet_1 (Unspecified)
system.caches.delayVCHist.vnet_1::mean       0.000437                       # delay histogram for vnet_1 (Unspecified)
system.caches.delayVCHist.vnet_1::stdev      0.051468                       # delay histogram for vnet_1 (Unspecified)
system.caches.delayVCHist.vnet_1         |    94867962     99.99%     99.99% |        1775      0.00%     99.99% |        1375      0.00%     99.99% |        3085      0.00%    100.00% |        1734      0.00%    100.00% |           2      0.00%    100.00% |           0      0.00%    100.00% |           0      0.00%    100.00% |           0      0.00%    100.00% |           0      0.00%    100.00% # delay histogram for vnet_1 (Unspecified)
system.caches.delayVCHist.vnet_1::total      94875933                       # delay histogram for vnet_1 (Unspecified)
system.caches.delayVCHist.vnet_2::bucket_size            1                       # delay histogram for vnet_2 (Unspecified)
system.caches.delayVCHist.vnet_2::max_bucket            9                       # delay histogram for vnet_2 (Unspecified)
system.caches.delayVCHist.vnet_2::samples       236650                       # delay histogram for vnet_2 (Unspecified)
system.caches.delayVCHist.vnet_2::mean       0.000287                       # delay histogram for vnet_2 (Unspecified)
system.caches.delayVCHist.vnet_2::stdev      0.023971                       # delay histogram for vnet_2 (Unspecified)
system.caches.delayVCHist.vnet_2         |      236616     99.99%     99.99% |           0      0.00%     99.99% |          34      0.01%    100.00% |           0      0.00%    100.00% |           0      0.00%    100.00% |           0      0.00%    100.00% |           0      0.00%    100.00% |           0      0.00%    100.00% |           0      0.00%    100.00% |           0      0.00%    100.00% # delay histogram for vnet_2 (Unspecified)
system.caches.delayVCHist.vnet_2::total        236650                       # delay histogram for vnet_2 (Unspecified)
system.caches.L1Cache_Controller.Load    |  1352859987     50.00%     50.00% |  1352813099     50.00%    100.00% (Unspecified)
system.caches.L1Cache_Controller.Load::total   2705673086                       (Unspecified)
system.caches.L1Cache_Controller.Ifetch  |  1069553514     49.95%     49.95% |  1071892779     50.05%    100.00% (Unspecified)
system.caches.L1Cache_Controller.Ifetch::total   2141446293                       (Unspecified)
system.caches.L1Cache_Controller.Store   |   285622265     50.13%     50.13% |   284101665     49.87%    100.00% (Unspecified)
system.caches.L1Cache_Controller.Store::total    569723930                       (Unspecified)
system.caches.L1Cache_Controller.Inv     |       78078     41.09%     41.09% |      111951     58.91%    100.00% (Unspecified)
system.caches.L1Cache_Controller.Inv::total       190029                       (Unspecified)
system.caches.L1Cache_Controller.L1_Replacement |    13069117     50.26%     50.26% |    12934247     49.74%    100.00% (Unspecified)
system.caches.L1Cache_Controller.L1_Replacement::total     26003364                       (Unspecified)
system.caches.L1Cache_Controller.Fwd_GETX |        1310     23.48%     23.48% |        4270     76.52%    100.00% (Unspecified)
system.caches.L1Cache_Controller.Fwd_GETX::total         5580                       (Unspecified)
system.caches.L1Cache_Controller.Fwd_GETS |       35653     86.87%     86.87% |        5388     13.13%    100.00% (Unspecified)
system.caches.L1Cache_Controller.Fwd_GETS::total        41041                       (Unspecified)
system.caches.L1Cache_Controller.Data    |         575     99.14%     99.14% |           5      0.86%    100.00% (Unspecified)
system.caches.L1Cache_Controller.Data::total          580                       (Unspecified)
system.caches.L1Cache_Controller.Data_Exclusive |     5357714     49.97%     49.97% |     5364597     50.03%    100.00% (Unspecified)
system.caches.L1Cache_Controller.Data_Exclusive::total     10722311                       (Unspecified)
system.caches.L1Cache_Controller.DataS_fromL1 |        5388     13.13%     13.13% |       35653     86.87%    100.00% (Unspecified)
system.caches.L1Cache_Controller.DataS_fromL1::total        41041                       (Unspecified)
system.caches.L1Cache_Controller.Data_all_Acks |     7782597     50.47%     50.47% |     7638052     49.53%    100.00% (Unspecified)
system.caches.L1Cache_Controller.Data_all_Acks::total     15420649                       (Unspecified)
system.caches.L1Cache_Controller.Ack     |       33957     97.61%     97.61% |         831      2.39%    100.00% (Unspecified)
system.caches.L1Cache_Controller.Ack::total        34788                       (Unspecified)
system.caches.L1Cache_Controller.Ack_all |       34532     97.64%     97.64% |         836      2.36%    100.00% (Unspecified)
system.caches.L1Cache_Controller.Ack_all::total        35368                       (Unspecified)
system.caches.L1Cache_Controller.WB_Ack  |    12813193     50.13%     50.13% |    12745840     49.87%    100.00% (Unspecified)
system.caches.L1Cache_Controller.WB_Ack::total     25559033                       (Unspecified)
system.caches.L1Cache_Controller.NP.Load |     5370071     49.98%     49.98% |     5374172     50.02%    100.00% (Unspecified)
system.caches.L1Cache_Controller.NP.Load::total     10744243                       (Unspecified)
system.caches.L1Cache_Controller.NP.Ifetch |      228467     59.33%     59.33% |      156612     40.67%    100.00% (Unspecified)
system.caches.L1Cache_Controller.NP.Ifetch::total       385079                       (Unspecified)
system.caches.L1Cache_Controller.NP.Store |     7479281     50.23%     50.23% |     7412167     49.77%    100.00% (Unspecified)
system.caches.L1Cache_Controller.NP.Store::total     14891448                       (Unspecified)
system.caches.L1Cache_Controller.NP.Inv  |        4968     37.04%     37.04% |        8445     62.96%    100.00% (Unspecified)
system.caches.L1Cache_Controller.NP.Inv::total        13413                       (Unspecified)
system.caches.L1Cache_Controller.I.Load  |       17925     26.41%     26.41% |       49935     73.59%    100.00% (Unspecified)
system.caches.L1Cache_Controller.I.Load::total        67860                       (Unspecified)
system.caches.L1Cache_Controller.I.Ifetch |       40632     52.37%     52.37% |       36956     47.63%    100.00% (Unspecified)
system.caches.L1Cache_Controller.I.Ifetch::total        77588                       (Unspecified)
system.caches.L1Cache_Controller.I.Store |        9899     53.92%     53.92% |        8461     46.08%    100.00% (Unspecified)
system.caches.L1Cache_Controller.I.Store::total        18360                       (Unspecified)
system.caches.L1Cache_Controller.I.L1_Replacement |        5629     31.83%     31.83% |       12053     68.17%    100.00% (Unspecified)
system.caches.L1Cache_Controller.I.L1_Replacement::total        17682                       (Unspecified)
system.caches.L1Cache_Controller.S.Load  |   856579601     49.98%     49.98% |   857211993     50.02%    100.00% (Unspecified)
system.caches.L1Cache_Controller.S.Load::total   1713791594                       (Unspecified)
system.caches.L1Cache_Controller.S.Ifetch |  1069284415     49.94%     49.94% |  1071699211     50.06%    100.00% (Unspecified)
system.caches.L1Cache_Controller.S.Ifetch::total   2140983626                       (Unspecified)
system.caches.L1Cache_Controller.S.Store |       33957     97.60%     97.60% |         835      2.40%    100.00% (Unspecified)
system.caches.L1Cache_Controller.S.Store::total        34792                       (Unspecified)
system.caches.L1Cache_Controller.S.Inv   |       50359     38.36%     38.36% |       80918     61.64%    100.00% (Unspecified)
system.caches.L1Cache_Controller.S.Inv::total       131277                       (Unspecified)
system.caches.L1Cache_Controller.S.L1_Replacement |      250295     58.67%     58.67% |      176354     41.33%    100.00% (Unspecified)
system.caches.L1Cache_Controller.S.L1_Replacement::total       426649                       (Unspecified)
system.caches.L1Cache_Controller.E.Load  |   163186184     50.13%     50.13% |   162327679     49.87%    100.00% (Unspecified)
system.caches.L1Cache_Controller.E.Load::total    325513863                       (Unspecified)
system.caches.L1Cache_Controller.E.Store |     2667862     50.01%     50.01% |     2666725     49.99%    100.00% (Unspecified)
system.caches.L1Cache_Controller.E.Store::total      5334587                       (Unspecified)
system.caches.L1Cache_Controller.E.Inv   |        6282     43.72%     43.72% |        8086     56.28%    100.00% (Unspecified)
system.caches.L1Cache_Controller.E.Inv::total        14368                       (Unspecified)
system.caches.L1Cache_Controller.E.L1_Replacement |     2677943     49.97%     49.97% |     2680969     50.03%    100.00% (Unspecified)
system.caches.L1Cache_Controller.E.L1_Replacement::total      5358912                       (Unspecified)
system.caches.L1Cache_Controller.E.Fwd_GETX |           6      2.74%      2.74% |         213     97.26%    100.00% (Unspecified)
system.caches.L1Cache_Controller.E.Fwd_GETX::total          219                       (Unspecified)
system.caches.L1Cache_Controller.E.Fwd_GETS |        1454     24.64%     24.64% |        4447     75.36%    100.00% (Unspecified)
system.caches.L1Cache_Controller.E.Fwd_GETS::total         5901                       (Unspecified)
system.caches.L1Cache_Controller.M.Load  |   327706206     49.99%     49.99% |   327849320     50.01%    100.00% (Unspecified)
system.caches.L1Cache_Controller.M.Load::total    655555526                       (Unspecified)
system.caches.L1Cache_Controller.M.Store |   275431266     50.13%     50.13% |   274013477     49.87%    100.00% (Unspecified)
system.caches.L1Cache_Controller.M.Store::total    549444743                       (Unspecified)
system.caches.L1Cache_Controller.M.Inv   |       16469     53.18%     53.18% |       14497     46.82%    100.00% (Unspecified)
system.caches.L1Cache_Controller.M.Inv::total        30966                       (Unspecified)
system.caches.L1Cache_Controller.M.L1_Replacement |    10135250     50.17%     50.17% |    10064871     49.83%    100.00% (Unspecified)
system.caches.L1Cache_Controller.M.L1_Replacement::total     20200121                       (Unspecified)
system.caches.L1Cache_Controller.M.Fwd_GETX |        1304     24.32%     24.32% |        4057     75.68%    100.00% (Unspecified)
system.caches.L1Cache_Controller.M.Fwd_GETX::total         5361                       (Unspecified)
system.caches.L1Cache_Controller.M.Fwd_GETS |       34199     97.32%     97.32% |         941      2.68%    100.00% (Unspecified)
system.caches.L1Cache_Controller.M.Fwd_GETS::total        35140                       (Unspecified)
system.caches.L1Cache_Controller.IS.Inv  |           0      0.00%      0.00% |           1    100.00%    100.00% (Unspecified)
system.caches.L1Cache_Controller.IS.Inv::total            1                       (Unspecified)
system.caches.L1Cache_Controller.IS.Data_Exclusive |     5357714     49.97%     49.97% |     5364597     50.03%    100.00% (Unspecified)
system.caches.L1Cache_Controller.IS.Data_Exclusive::total     10722311                       (Unspecified)
system.caches.L1Cache_Controller.IS.DataS_fromL1 |        5388     13.13%     13.13% |       35652     86.87%    100.00% (Unspecified)
system.caches.L1Cache_Controller.IS.DataS_fromL1::total        41040                       (Unspecified)
system.caches.L1Cache_Controller.IS.Data_all_Acks |      293992     57.49%     57.49% |      217425     42.51%    100.00% (Unspecified)
system.caches.L1Cache_Controller.IS.Data_all_Acks::total       511417                       (Unspecified)
system.caches.L1Cache_Controller.IM.Data |         575     99.14%     99.14% |           5      0.86%    100.00% (Unspecified)
system.caches.L1Cache_Controller.IM.Data::total          580                       (Unspecified)
system.caches.L1Cache_Controller.IM.Data_all_Acks |     7488605     50.23%     50.23% |     7420627     49.77%    100.00% (Unspecified)
system.caches.L1Cache_Controller.IM.Data_all_Acks::total     14909232                       (Unspecified)
system.caches.L1Cache_Controller.SM.Inv  |           0      0.00%      0.00% |           4    100.00%    100.00% (Unspecified)
system.caches.L1Cache_Controller.SM.Inv::total            4                       (Unspecified)
system.caches.L1Cache_Controller.SM.Ack  |       33957     97.61%     97.61% |         831      2.39%    100.00% (Unspecified)
system.caches.L1Cache_Controller.SM.Ack::total        34788                       (Unspecified)
system.caches.L1Cache_Controller.SM.Ack_all |       34532     97.64%     97.64% |         836      2.36%    100.00% (Unspecified)
system.caches.L1Cache_Controller.SM.Ack_all::total        35368                       (Unspecified)
system.caches.L1Cache_Controller.IS_I.DataS_fromL1 |           0      0.00%      0.00% |           1    100.00%    100.00% (Unspecified)
system.caches.L1Cache_Controller.IS_I.DataS_fromL1::total            1                       (Unspecified)
system.caches.L1Cache_Controller.M_I.WB_Ack |    12813193     50.13%     50.13% |    12745840     49.87%    100.00% (Unspecified)
system.caches.L1Cache_Controller.M_I.WB_Ack::total     25559033                       (Unspecified)
system.caches.Directory_Controller.Fetch     21497580      0.00%      0.00% (Unspecified)
system.caches.Directory_Controller.Data      16094945      0.00%      0.00% (Unspecified)
system.caches.Directory_Controller.Memory_Data     21497607      0.00%      0.00% (Unspecified)
system.caches.Directory_Controller.Memory_Ack     16094945      0.00%      0.00% (Unspecified)
system.caches.Directory_Controller.DMA_READ         2402      0.00%      0.00% (Unspecified)
system.caches.Directory_Controller.CleanReplacement      5271563      0.00%      0.00% (Unspecified)
system.caches.Directory_Controller.I.Fetch     21497580      0.00%      0.00% (Unspecified)
system.caches.Directory_Controller.I.DMA_READ           28      0.00%      0.00% (Unspecified)
system.caches.Directory_Controller.ID.Memory_Data           28      0.00%      0.00% (Unspecified)
system.caches.Directory_Controller.M.Data     16092571      0.00%      0.00% (Unspecified)
system.caches.Directory_Controller.M.DMA_READ         2374      0.00%      0.00% (Unspecified)
system.caches.Directory_Controller.M.CleanReplacement      5271563      0.00%      0.00% (Unspecified)
system.caches.Directory_Controller.IM.Memory_Data     21497579      0.00%      0.00% (Unspecified)
system.caches.Directory_Controller.MI.Memory_Ack     16092571      0.00%      0.00% (Unspecified)
system.caches.Directory_Controller.M_DRD.Data         2374      0.00%      0.00% (Unspecified)
system.caches.Directory_Controller.M_DRDI.Memory_Ack         2374      0.00%      0.00% (Unspecified)
system.caches.DMA_Controller.ReadRequest |        2402    100.00%    100.00% |           0      0.00%    100.00% (Unspecified)
system.caches.DMA_Controller.ReadRequest::total         2402                       (Unspecified)
system.caches.DMA_Controller.Data        |        2402    100.00%    100.00% |           0      0.00%    100.00% (Unspecified)
system.caches.DMA_Controller.Data::total         2402                       (Unspecified)
system.caches.DMA_Controller.READY.ReadRequest |        2402    100.00%    100.00% |           0      0.00%    100.00% (Unspecified)
system.caches.DMA_Controller.READY.ReadRequest::total         2402                       (Unspecified)
system.caches.DMA_Controller.BUSY_RD.Data |        2402    100.00%    100.00% |           0      0.00%    100.00% (Unspecified)
system.caches.DMA_Controller.BUSY_RD.Data::total         2402                       (Unspecified)
system.caches.L2Cache_Controller.L1_GET_INSTR |       34876      7.54%      7.54% |       65024     14.05%     21.59% |       76622     16.56%     38.15% |       25162      5.44%     43.58% |       57499     12.43%     56.01% |       57623     12.45%     68.46% |       76534     16.54%     85.00% |       69410     15.00%    100.00% (Unspecified)
system.caches.L2Cache_Controller.L1_GET_INSTR::total       462750                       (Unspecified)
system.caches.L2Cache_Controller.L1_GETS |     1362907     12.59%     12.59% |     1352325     12.49%     25.09% |     1345505     12.43%     37.52% |     1347516     12.45%     49.97% |     1345544     12.43%     62.40% |     1345895     12.43%     74.83% |     1375826     12.71%     87.54% |     1348428     12.46%    100.00% (Unspecified)
system.caches.L2Cache_Controller.L1_GETS::total     10823946                       (Unspecified)
system.caches.L2Cache_Controller.L1_GETX |     1867840     12.53%     12.53% |     1862764     12.49%     25.02% |     1861694     12.49%     37.51% |     1862506     12.49%     50.00% |     1862934     12.49%     62.49% |     1866188     12.52%     75.01% |     1862660     12.49%     87.50% |     1863335     12.50%    100.00% (Unspecified)
system.caches.L2Cache_Controller.L1_GETX::total     14909921                       (Unspecified)
system.caches.L2Cache_Controller.L1_UPGRADE |        8966     20.09%     20.09% |        4637     10.39%     30.48% |         189      0.42%     30.90% |          99      0.22%     31.12% |         254      0.57%     31.69% |         201      0.45%     32.14% |       30116     67.47%     99.62% |         171      0.38%    100.00% (Unspecified)
system.caches.L2Cache_Controller.L1_UPGRADE::total        44633                       (Unspecified)
system.caches.L2Cache_Controller.L1_PUTX |     3197988     12.51%     12.51% |     3195757     12.50%     25.02% |     3192235     12.49%     37.51% |     3193793     12.50%     50.00% |     3194051     12.50%     62.50% |     3196617     12.51%     75.00% |     3193972     12.50%     87.50% |     3194620     12.50%    100.00% (Unspecified)
system.caches.L2Cache_Controller.L1_PUTX::total     25559033                       (Unspecified)
system.caches.L2Cache_Controller.L2_Replacement |     2007989     12.50%     12.50% |     2007606     12.50%     25.00% |     2008056     12.50%     37.50% |     2007790     12.50%     50.00% |     2008121     12.50%     62.50% |     2008065     12.50%     75.00% |     2007802     12.50%     87.50% |     2007819     12.50%    100.00% (Unspecified)
system.caches.L2Cache_Controller.L2_Replacement::total     16063248                       (Unspecified)
system.caches.L2Cache_Controller.L2_Replacement_clean |      663871     12.52%     12.52% |      663797     12.52%     25.05% |      661457     12.48%     37.52% |      662300     12.49%     50.02% |      661970     12.49%     62.51% |      662865     12.50%     75.01% |      661527     12.48%     87.49% |      663099     12.51%    100.00% (Unspecified)
system.caches.L2Cache_Controller.L2_Replacement_clean::total      5300886                       (Unspecified)
system.caches.L2Cache_Controller.Mem_Data |     2688543     12.51%     12.51% |     2688084     12.50%     25.01% |     2686193     12.50%     37.51% |     2686771     12.50%     50.00% |     2686771     12.50%     62.50% |     2687610     12.50%     75.00% |     2686009     12.49%     87.50% |     2687598     12.50%    100.00% (Unspecified)
system.caches.L2Cache_Controller.Mem_Data::total     21497579                       (Unspecified)
system.caches.L2Cache_Controller.Mem_Ack |     2672159     12.51%     12.51% |     2671700     12.50%     25.01% |     2669810     12.50%     37.51% |     2670387     12.50%     50.00% |     2670387     12.50%     62.50% |     2671226     12.50%     75.00% |     2669625     12.49%     87.50% |     2671214     12.50%    100.00% (Unspecified)
system.caches.L2Cache_Controller.Mem_Ack::total     21366508                       (Unspecified)
system.caches.L2Cache_Controller.WB_Data |       13482     20.39%     20.39% |        8074     12.21%     32.61% |        3090      4.67%     37.28% |        4104      6.21%     43.49% |        3782      5.72%     49.21% |        5055      7.65%     56.86% |       24160     36.55%     93.41% |        4359      6.59%    100.00% (Unspecified)
system.caches.L2Cache_Controller.WB_Data::total        66106                       (Unspecified)
system.caches.L2Cache_Controller.WB_Data_clean |        1287     21.81%     21.81% |         910     15.42%     37.23% |         901     15.27%     52.50% |         729     12.35%     64.85% |         651     11.03%     75.89% |         360      6.10%     81.99% |         315      5.34%     87.32% |         748     12.68%    100.00% (Unspecified)
system.caches.L2Cache_Controller.WB_Data_clean::total         5901                       (Unspecified)
system.caches.L2Cache_Controller.Ack     |        6750     14.24%     14.24% |        6222     13.13%     27.37% |        5870     12.38%     39.75% |        5597     11.81%     51.56% |        6017     12.69%     64.25% |        5762     12.16%     76.41% |        5374     11.34%     87.75% |        5808     12.25%    100.00% (Unspecified)
system.caches.L2Cache_Controller.Ack::total        47400                       (Unspecified)
system.caches.L2Cache_Controller.Ack_all |       10504     13.77%     13.77% |       10786     14.14%     27.90% |        9186     12.04%     39.94% |        9043     11.85%     51.80% |        9452     12.39%     64.19% |        8975     11.76%     75.95% |        8640     11.32%     87.27% |        9709     12.73%    100.00% (Unspecified)
system.caches.L2Cache_Controller.Ack_all::total        76295                       (Unspecified)
system.caches.L2Cache_Controller.Unblock |       10639     25.92%     25.92% |        5353     13.04%     38.97% |        1063      2.59%     41.56% |         821      2.00%     43.56% |         914      2.23%     45.78% |         563      1.37%     47.16% |       20771     50.61%     97.77% |         917      2.23%    100.00% (Unspecified)
system.caches.L2Cache_Controller.Unblock::total        41041                       (Unspecified)
system.caches.L2Cache_Controller.Exclusive_Unblock |     3217512     12.54%     12.54% |     3209821     12.51%     25.04% |     3200436     12.47%     37.51% |     3202980     12.48%     49.99% |     3203235     12.48%     62.47% |     3206346     12.49%     74.96% |     3222742     12.56%     87.52% |     3203839     12.48%    100.00% (Unspecified)
system.caches.L2Cache_Controller.Exclusive_Unblock::total     25666911                       (Unspecified)
system.caches.L2Cache_Controller.MEM_Inv |         598     12.59%     12.59% |         594     12.51%     25.11% |         594     12.51%     37.62% |         594     12.51%     50.13% |         592     12.47%     62.59% |         592     12.47%     75.06% |         592     12.47%     87.53% |         592     12.47%    100.00% (Unspecified)
system.caches.L2Cache_Controller.MEM_Inv::total         4748                       (Unspecified)
system.caches.L2Cache_Controller.NP.L1_GET_INSTR |        7070     12.98%     12.98% |        7448     13.67%     26.65% |        6454     11.85%     38.49% |        6446     11.83%     50.32% |        6717     12.33%     62.65% |        6803     12.49%     75.14% |        6554     12.03%     87.17% |        6993     12.83%    100.00% (Unspecified)
system.caches.L2Cache_Controller.NP.L1_GET_INSTR::total        54485                       (Unspecified)
system.caches.L2Cache_Controller.NP.L1_GETS |     1326480     12.50%     12.50% |     1326575     12.51%     25.01% |     1325962     12.50%     37.51% |     1326249     12.50%     50.01% |     1325852     12.50%     62.51% |     1325641     12.50%     75.01% |     1325214     12.49%     87.50% |     1326224     12.50%    100.00% (Unspecified)
system.caches.L2Cache_Controller.NP.L1_GETS::total     10608197                       (Unspecified)
system.caches.L2Cache_Controller.NP.L1_GETX |     1354993     12.51%     12.51% |     1354061     12.50%     25.00% |     1353778     12.49%     37.50% |     1354076     12.50%     50.00% |     1354202     12.50%     62.49% |     1355166     12.51%     75.00% |     1354241     12.50%     87.50% |     1354381     12.50%    100.00% (Unspecified)
system.caches.L2Cache_Controller.NP.L1_GETX::total     10834898                       (Unspecified)
system.caches.L2Cache_Controller.SS.L1_GET_INSTR |       26607      6.67%      6.67% |       56239     14.09%     20.76% |       69170     17.34%     38.10% |       17661      4.43%     42.52% |       49464     12.40%     54.92% |       49511     12.41%     67.33% |       68926     17.27%     84.60% |       61441     15.40%    100.00% (Unspecified)
system.caches.L2Cache_Controller.SS.L1_GET_INSTR::total       399019                       (Unspecified)
system.caches.L2Cache_Controller.SS.L1_GETS |       10517     23.78%     23.78% |        4000      9.04%     32.82% |        5076     11.48%     44.30% |        5875     13.28%     57.58% |        4059      9.18%     66.75% |        4914     11.11%     77.86% |        3406      7.70%     85.56% |        6385     14.44%    100.00% (Unspecified)
system.caches.L2Cache_Controller.SS.L1_GETS::total        44232                       (Unspecified)
system.caches.L2Cache_Controller.SS.L1_GETX |         388     66.90%     66.90% |           0      0.00%     66.90% |           0      0.00%     66.90% |           0      0.00%     66.90% |           9      1.55%     68.45% |           1      0.17%     68.62% |         182     31.38%    100.00% |           0      0.00%    100.00% (Unspecified)
system.caches.L2Cache_Controller.SS.L1_GETX::total          580                       (Unspecified)
system.caches.L2Cache_Controller.SS.L1_UPGRADE |        8966     25.77%     25.77% |        4637     13.33%     39.10% |         189      0.54%     39.65% |          96      0.28%     39.92% |         254      0.73%     40.65% |         201      0.58%     41.23% |       20274     58.28%     99.51% |         171      0.49%    100.00% (Unspecified)
system.caches.L2Cache_Controller.SS.L1_UPGRADE::total        34788                       (Unspecified)
system.caches.L2Cache_Controller.SS.L2_Replacement |           6     12.00%     12.00% |           6     12.00%     24.00% |           6     12.00%     36.00% |           9     18.00%     54.00% |           6     12.00%     66.00% |           6     12.00%     78.00% |           7     14.00%     92.00% |           4      8.00%    100.00% (Unspecified)
system.caches.L2Cache_Controller.SS.L2_Replacement::total           50                       (Unspecified)
system.caches.L2Cache_Controller.SS.L2_Replacement_clean |        8774     14.18%     14.18% |        8350     13.49%     27.67% |        7650     12.36%     40.04% |        7300     11.80%     51.84% |        7553     12.21%     64.04% |        7307     11.81%     75.85% |        6902     11.15%     87.00% |        8041     13.00%    100.00% (Unspecified)
system.caches.L2Cache_Controller.SS.L2_Replacement_clean::total        61877                       (Unspecified)
system.caches.L2Cache_Controller.M.L1_GETS |       14730     12.66%     12.66% |       16112     13.85%     26.50% |       12988     11.16%     37.66% |       14340     12.32%     49.99% |       14457     12.42%     62.41% |       14548     12.50%     74.91% |       14696     12.63%     87.54% |       14503     12.46%    100.00% (Unspecified)
system.caches.L2Cache_Controller.M.L1_GETS::total       116374                       (Unspecified)
system.caches.L2Cache_Controller.M.L1_GETX |      511386     12.57%     12.57% |      508039     12.49%     25.05% |      507217     12.47%     37.52% |      507785     12.48%     50.00% |      507846     12.48%     62.48% |      510344     12.54%     75.03% |      507666     12.48%     87.50% |      508471     12.50%    100.00% (Unspecified)
system.caches.L2Cache_Controller.M.L1_GETX::total      4068754                       (Unspecified)
system.caches.L2Cache_Controller.M.L2_Replacement |     2007722     12.50%     12.50% |     2007474     12.50%     25.00% |     2007972     12.50%     37.50% |     2007613     12.50%     50.00% |     2007915     12.50%     62.50% |     2007790     12.50%     75.00% |     2007600     12.50%     87.50% |     2007573     12.50%    100.00% (Unspecified)
system.caches.L2Cache_Controller.M.L2_Replacement::total     16061659                       (Unspecified)
system.caches.L2Cache_Controller.M.L2_Replacement_clean |      649766     12.50%     12.50% |      649775     12.50%     25.00% |      649690     12.50%     37.50% |      649684     12.50%     50.00% |      649466     12.50%     62.50% |      649575     12.50%     75.00% |      649649     12.50%     87.50% |      649707     12.50%    100.00% (Unspecified)
system.caches.L2Cache_Controller.M.L2_Replacement_clean::total      5197312                       (Unspecified)
system.caches.L2Cache_Controller.M.MEM_Inv |          37     13.41%     13.41% |          34     12.32%     25.72% |          34     12.32%     38.04% |          35     12.68%     50.72% |          35     12.68%     63.41% |          34     12.32%     75.72% |          32     11.59%     87.32% |          35     12.68%    100.00% (Unspecified)
system.caches.L2Cache_Controller.M.MEM_Inv::total          276                       (Unspecified)
system.caches.L2Cache_Controller.MT.L1_GETS |       10639     25.92%     25.92% |        5353     13.04%     38.97% |        1063      2.59%     41.56% |         821      2.00%     43.56% |         914      2.23%     45.78% |         563      1.37%     47.16% |       20771     50.61%     97.77% |         917      2.23%    100.00% (Unspecified)
system.caches.L2Cache_Controller.MT.L1_GETS::total        41041                       (Unspecified)
system.caches.L2Cache_Controller.MT.L1_GETX |        1067     19.12%     19.12% |         654     11.72%     30.84% |         693     12.42%     43.26% |         626     11.22%     54.48% |         863     15.47%     69.95% |         654     11.72%     81.67% |         561     10.05%     91.72% |         462      8.28%    100.00% (Unspecified)
system.caches.L2Cache_Controller.MT.L1_GETX::total         5580                       (Unspecified)
system.caches.L2Cache_Controller.MT.L1_PUTX |     3197988     12.51%     12.51% |     3195757     12.50%     25.02% |     3192235     12.49%     37.51% |     3193793     12.50%     50.00% |     3194051     12.50%     62.50% |     3196617     12.51%     75.00% |     3193972     12.50%     87.50% |     3194620     12.50%    100.00% (Unspecified)
system.caches.L2Cache_Controller.MT.L1_PUTX::total     25559033                       (Unspecified)
system.caches.L2Cache_Controller.MT.L2_Replacement |         261     16.96%     16.96% |         126      8.19%     25.15% |          78      5.07%     30.21% |         168     10.92%     41.13% |         200     13.00%     54.13% |         269     17.48%     71.60% |         195     12.67%     84.28% |         242     15.72%    100.00% (Unspecified)
system.caches.L2Cache_Controller.MT.L2_Replacement::total         1539                       (Unspecified)
system.caches.L2Cache_Controller.MT.L2_Replacement_clean |        5331     12.79%     12.79% |        5672     13.60%     26.39% |        4117      9.87%     36.26% |        5316     12.75%     49.01% |        4951     11.87%     60.88% |        5983     14.35%     75.23% |        4976     11.93%     87.17% |        5351     12.83%    100.00% (Unspecified)
system.caches.L2Cache_Controller.MT.L2_Replacement_clean::total        41697                       (Unspecified)
system.caches.L2Cache_Controller.MT.MEM_Inv |         262     12.49%     12.49% |         263     12.54%     25.02% |         263     12.54%     37.56% |         262     12.49%     50.05% |         261     12.44%     62.49% |         262     12.49%     74.98% |         264     12.58%     87.56% |         261     12.44%    100.00% (Unspecified)
system.caches.L2Cache_Controller.MT.MEM_Inv::total         2098                       (Unspecified)
system.caches.L2Cache_Controller.M_I.L1_GET_INSTR |           7      8.43%      8.43% |          30     36.14%     44.58% |           6      7.23%     51.81% |           6      7.23%     59.04% |           9     10.84%     69.88% |          11     13.25%     83.13% |          10     12.05%     95.18% |           4      4.82%    100.00% (Unspecified)
system.caches.L2Cache_Controller.M_I.L1_GET_INSTR::total           83                       (Unspecified)
system.caches.L2Cache_Controller.M_I.L1_GETS |          12      8.33%      8.33% |          18     12.50%     20.83% |          24     16.67%     37.50% |          36     25.00%     62.50% |           7      4.86%     67.36% |          15     10.42%     77.78% |          17     11.81%     89.58% |          15     10.42%    100.00% (Unspecified)
system.caches.L2Cache_Controller.M_I.L1_GETS::total          144                       (Unspecified)
system.caches.L2Cache_Controller.M_I.L1_GETX |           4      3.96%      3.96% |           5      4.95%      8.91% |           6      5.94%     14.85% |          18     17.82%     32.67% |          14     13.86%     46.53% |          23     22.77%     69.31% |          10      9.90%     79.21% |          21     20.79%    100.00% (Unspecified)
system.caches.L2Cache_Controller.M_I.L1_GETX::total          101                       (Unspecified)
system.caches.L2Cache_Controller.M_I.Mem_Ack |     2672159     12.51%     12.51% |     2671700     12.50%     25.01% |     2669810     12.50%     37.51% |     2670387     12.50%     50.00% |     2670387     12.50%     62.50% |     2671226     12.50%     75.00% |     2669625     12.49%     87.50% |     2671214     12.50%    100.00% (Unspecified)
system.caches.L2Cache_Controller.M_I.Mem_Ack::total     21366508                       (Unspecified)
system.caches.L2Cache_Controller.M_I.MEM_Inv |          37     13.41%     13.41% |          34     12.32%     25.72% |          34     12.32%     38.04% |          35     12.68%     50.72% |          35     12.68%     63.41% |          34     12.32%     75.72% |          32     11.59%     87.32% |          35     12.68%    100.00% (Unspecified)
system.caches.L2Cache_Controller.M_I.MEM_Inv::total          276                       (Unspecified)
system.caches.L2Cache_Controller.MT_I.WB_Data |         277     16.86%     16.86% |         139      8.46%     25.32% |          92      5.60%     30.92% |         180     10.96%     41.87% |         211     12.84%     54.72% |         283     17.22%     71.94% |         206     12.54%     84.48% |         255     15.52%    100.00% (Unspecified)
system.caches.L2Cache_Controller.MT_I.WB_Data::total         1643                       (Unspecified)
system.caches.L2Cache_Controller.MT_I.Ack_all |         246     12.34%     12.34% |         250     12.54%     24.87% |         249     12.49%     37.36% |         250     12.54%     49.90% |         250     12.54%     62.44% |         248     12.44%     74.87% |         253     12.69%     87.56% |         248     12.44%    100.00% (Unspecified)
system.caches.L2Cache_Controller.MT_I.Ack_all::total         1994                       (Unspecified)
system.caches.L2Cache_Controller.MT_I.MEM_Inv |         262     12.49%     12.49% |         263     12.54%     25.02% |         263     12.54%     37.56% |         262     12.49%     50.05% |         261     12.44%     62.49% |         262     12.49%     74.98% |         264     12.58%     87.56% |         261     12.44%    100.00% (Unspecified)
system.caches.L2Cache_Controller.MT_I.MEM_Inv::total         2098                       (Unspecified)
system.caches.L2Cache_Controller.MCT_I.WB_Data |        3853     13.14%     13.14% |        3492     11.91%     25.05% |        2836      9.67%     34.72% |        3832     13.07%     47.79% |        3308     11.28%     59.07% |        4569     15.58%     74.65% |        3498     11.93%     86.58% |        3935     13.42%    100.00% (Unspecified)
system.caches.L2Cache_Controller.MCT_I.WB_Data::total        29323                       (Unspecified)
system.caches.L2Cache_Controller.MCT_I.Ack_all |        1478     11.94%     11.94% |        2180     17.62%     29.56% |        1281     10.35%     39.91% |        1484     11.99%     51.91% |        1643     13.28%     65.19% |        1414     11.43%     76.61% |        1478     11.94%     88.56% |        1416     11.44%    100.00% (Unspecified)
system.caches.L2Cache_Controller.MCT_I.Ack_all::total        12374                       (Unspecified)
system.caches.L2Cache_Controller.I_I.Ack |        6744     14.24%     14.24% |        6216     13.13%     27.37% |        5864     12.38%     39.76% |        5588     11.80%     51.56% |        6011     12.69%     64.25% |        5756     12.16%     76.41% |        5367     11.33%     87.74% |        5804     12.26%    100.00% (Unspecified)
system.caches.L2Cache_Controller.I_I.Ack::total        47350                       (Unspecified)
system.caches.L2Cache_Controller.I_I.Ack_all |        8774     14.18%     14.18% |        8350     13.49%     27.67% |        7650     12.36%     40.04% |        7300     11.80%     51.84% |        7553     12.21%     64.04% |        7307     11.81%     75.85% |        6902     11.15%     87.00% |        8041     13.00%    100.00% (Unspecified)
system.caches.L2Cache_Controller.I_I.Ack_all::total        61877                       (Unspecified)
system.caches.L2Cache_Controller.S_I.Ack |           6     12.00%     12.00% |           6     12.00%     24.00% |           6     12.00%     36.00% |           9     18.00%     54.00% |           6     12.00%     66.00% |           6     12.00%     78.00% |           7     14.00%     92.00% |           4      8.00%    100.00% (Unspecified)
system.caches.L2Cache_Controller.S_I.Ack::total           50                       (Unspecified)
system.caches.L2Cache_Controller.S_I.Ack_all |           6     12.00%     12.00% |           6     12.00%     24.00% |           6     12.00%     36.00% |           9     18.00%     54.00% |           6     12.00%     66.00% |           6     12.00%     78.00% |           7     14.00%     92.00% |           4      8.00%    100.00% (Unspecified)
system.caches.L2Cache_Controller.S_I.Ack_all::total           50                       (Unspecified)
system.caches.L2Cache_Controller.ISS.L1_GETS |         498     22.05%     22.05% |         257     11.38%     33.42% |         390     17.26%     50.69% |         192      8.50%     59.19% |         248     10.98%     70.16% |         209      9.25%     79.42% |          92      4.07%     83.49% |         373     16.51%    100.00% (Unspecified)
system.caches.L2Cache_Controller.ISS.L1_GETS::total         2259                       (Unspecified)
system.caches.L2Cache_Controller.ISS.Mem_Data |     1325982     12.50%     12.50% |     1326318     12.51%     25.01% |     1325571     12.50%     37.51% |     1326057     12.50%     50.01% |     1325604     12.50%     62.51% |     1325432     12.50%     75.00% |     1325122     12.49%     87.50% |     1325851     12.50%    100.00% (Unspecified)
system.caches.L2Cache_Controller.ISS.Mem_Data::total     10605937                       (Unspecified)
system.caches.L2Cache_Controller.IS.L1_GET_INSTR |        1192     13.01%     13.01% |        1307     14.26%     27.27% |         992     10.83%     38.10% |        1049     11.45%     49.55% |        1309     14.29%     63.83% |        1298     14.17%     78.00% |        1044     11.39%     89.39% |         972     10.61%    100.00% (Unspecified)
system.caches.L2Cache_Controller.IS.L1_GET_INSTR::total         9163                       (Unspecified)
system.caches.L2Cache_Controller.IS.Mem_Data |        7568     13.34%     13.34% |        7705     13.58%     26.92% |        6844     12.06%     38.98% |        6638     11.70%     50.67% |        6965     12.27%     62.95% |        7012     12.36%     75.31% |        6646     11.71%     87.02% |        7366     12.98%    100.00% (Unspecified)
system.caches.L2Cache_Controller.IS.Mem_Data::total        56744                       (Unspecified)
system.caches.L2Cache_Controller.IM.L1_GETS |           0      0.00%      0.00% |           0      0.00%      0.00% |           0      0.00%      0.00% |           0      0.00%      0.00% |           0      0.00%      0.00% |           0      0.00%      0.00% |           1    100.00%    100.00% |           0      0.00%    100.00% (Unspecified)
system.caches.L2Cache_Controller.IM.L1_GETS::total            1                       (Unspecified)
system.caches.L2Cache_Controller.IM.L1_GETX |           2     25.00%     25.00% |           5     62.50%     87.50% |           0      0.00%     87.50% |           1     12.50%    100.00% |           0      0.00%    100.00% |           0      0.00%    100.00% |           0      0.00%    100.00% |           0      0.00%    100.00% (Unspecified)
system.caches.L2Cache_Controller.IM.L1_GETX::total            8                       (Unspecified)
system.caches.L2Cache_Controller.IM.Mem_Data |     1354993     12.51%     12.51% |     1354061     12.50%     25.00% |     1353778     12.49%     37.50% |     1354076     12.50%     50.00% |     1354202     12.50%     62.49% |     1355166     12.51%     75.00% |     1354241     12.50%     87.50% |     1354381     12.50%    100.00% (Unspecified)
system.caches.L2Cache_Controller.IM.Mem_Data::total     10834898                       (Unspecified)
system.caches.L2Cache_Controller.SS_MB.L1_GETS |           5      0.04%      0.04% |           0      0.00%      0.04% |           0      0.00%      0.04% |           1      0.01%      0.05% |           0      0.00%      0.05% |           0      0.00%      0.05% |       11627     99.95%    100.00% |           0      0.00%    100.00% (Unspecified)
system.caches.L2Cache_Controller.SS_MB.L1_GETS::total        11633                       (Unspecified)
system.caches.L2Cache_Controller.SS_MB.L1_UPGRADE |           0      0.00%      0.00% |           0      0.00%      0.00% |           0      0.00%      0.00% |           3     75.00%     75.00% |           0      0.00%     75.00% |           0      0.00%     75.00% |           1     25.00%    100.00% |           0      0.00%    100.00% (Unspecified)
system.caches.L2Cache_Controller.SS_MB.L1_UPGRADE::total            4                       (Unspecified)
system.caches.L2Cache_Controller.SS_MB.Exclusive_Unblock |        9354     26.45%     26.45% |        4637     13.11%     39.56% |         189      0.53%     40.09% |          96      0.27%     40.36% |         263      0.74%     41.11% |         202      0.57%     41.68% |       20456     57.84%     99.52% |         171      0.48%    100.00% (Unspecified)
system.caches.L2Cache_Controller.SS_MB.Exclusive_Unblock::total        35368                       (Unspecified)
system.caches.L2Cache_Controller.MT_MB.L1_GETS |          26     40.00%     40.00% |          10     15.38%     55.38% |           2      3.08%     58.46% |           2      3.08%     61.54% |           7     10.77%     72.31% |           5      7.69%     80.00% |           2      3.08%     83.08% |          11     16.92%    100.00% (Unspecified)
system.caches.L2Cache_Controller.MT_MB.L1_GETS::total           65                       (Unspecified)
system.caches.L2Cache_Controller.MT_MB.Exclusive_Unblock |     3208158     12.52%     12.52% |     3205184     12.50%     25.02% |     3200247     12.49%     37.51% |     3202884     12.50%     50.00% |     3202972     12.50%     62.50% |     3206144     12.51%     75.01% |     3202286     12.49%     87.50% |     3203668     12.50%    100.00% (Unspecified)
system.caches.L2Cache_Controller.MT_MB.Exclusive_Unblock::total     25631543                       (Unspecified)
[...]
system.timingCpu0.exec_context.thread_0.statExecutedInstType::FloatMemRead   1237857607     19.28%     96.35% # Class of executed instruction. (Count)
system.timingCpu0.exec_context.thread_0.statExecutedInstType::FloatMemWrite    234353298      3.65%    100.00% # Class of executed instruction. (Count)
system.timingCpu0.exec_context.thread_0.statExecutedInstType::IprAccess            0      0.00%    100.00% # Class of executed instruction. (Count)
system.timingCpu0.exec_context.thread_0.statExecutedInstType::InstPrefetch            0      0.00%    100.00% # Class of executed instruction. (Count)
system.timingCpu0.exec_context.thread_0.statExecutedInstType::total   6422008061                       # Class of executed instruction. (Count)
system.timingCpu0.mmu.dtb.rdAccesses       1352672466                       # TLB accesses on read requests (Count)
system.timingCpu0.mmu.dtb.wrAccesses        285187582                       # TLB accesses on write requests (Count)
system.timingCpu0.mmu.dtb.rdMisses             220642                       # TLB misses on read requests (Count)
system.timingCpu0.mmu.dtb.wrMisses              17629                       # TLB misses on write requests (Count)
system.timingCpu0.mmu.dtb.walker.power_state.pwrStateResidencyTicks::UNDEFINED 23387763875000                       # Cumulative time (in ticks) in various power states (Tick)
system.timingCpu0.mmu.itb.rdAccesses                0                       # TLB accesses on read requests (Count)
system.timingCpu0.mmu.itb.wrAccesses       5364529643                       # TLB accesses on write requests (Count)
system.timingCpu0.mmu.itb.rdMisses                  0                       # TLB misses on read requests (Count)
system.timingCpu0.mmu.itb.wrMisses               8833                       # TLB misses on write requests (Count)
system.timingCpu0.mmu.itb.walker.power_state.pwrStateResidencyTicks::UNDEFINED 23387763875000                       # Cumulative time (in ticks) in various power states (Tick)
system.timingCpu0.power_state.numTransitions            2                       # Number of power state transitions (Count)
system.timingCpu0.power_state.ticksClkGated::samples            1                       # Distribution of time spent in the clock gated state (Tick)
system.timingCpu0.power_state.ticksClkGated::mean     96055000                       # Distribution of time spent in the clock gated state (Tick)
system.timingCpu0.power_state.ticksClkGated::1000-5e+10            1    100.00%    100.00% # Distribution of time spent in the clock gated state (Tick)
system.timingCpu0.power_state.ticksClkGated::min_value     96055000                       # Distribution of time spent in the clock gated state (Tick)
system.timingCpu0.power_state.ticksClkGated::max_value     96055000                       # Distribution of time spent in the clock gated state (Tick)
system.timingCpu0.power_state.ticksClkGated::total            1                       # Distribution of time spent in the clock gated state (Tick)
system.timingCpu0.power_state.pwrStateResidencyTicks::ON 4762386977750                       # Cumulative time (in ticks) in various power states (Tick)
system.timingCpu0.power_state.pwrStateResidencyTicks::CLK_GATED     96055000                       # Cumulative time (in ticks) in various power states (Tick)
system.timingCpu0.power_state.pwrStateResidencyTicks::OFF 18625280842250                       # Cumulative time (in ticks) in various power states (Tick)
system.timingCpu0.thread_0.numInsts                 0                       # Number of Instructions committed (Count)
system.timingCpu0.thread_0.numOps                   0                       # Number of Ops committed (Count)
system.timingCpu0.thread_0.numMemRefs               0                       # Number of Memory References (Count)
system.timingCpu1.numCycles               19999999999                       # Number of cpu cycles simulated (Cycle)
system.timingCpu1.numWorkItemsStarted               0                       # Number of work items this cpu started (Count)
system.timingCpu1.numWorkItemsCompleted             0                       # Number of work items this cpu completed (Count)
system.timingCpu1.exec_context.thread_0.numInsts   3434577736                       # Number of instructions committed (Count)
system.timingCpu1.exec_context.thread_0.numOps   6422852274                       # Number of ops (including micro ops) committed (Count)
system.timingCpu1.exec_context.thread_0.numIntAluAccesses   2787303848                       # Number of integer alu accesses (Count)
system.timingCpu1.exec_context.thread_0.numFpAluAccesses   5186319061                       # Number of float alu accesses (Count)
system.timingCpu1.exec_context.thread_0.numVecAluAccesses            0                       # Number of vector alu accesses (Count)
system.timingCpu1.exec_context.thread_0.numCallsReturns     26082937                       # Number of times a function call or return occured (Count)
system.timingCpu1.exec_context.thread_0.numCondCtrlInsts     28107915                       # Number of instructions that are conditional controls (Count)
system.timingCpu1.exec_context.thread_0.numIntInsts   2787303848                       # Number of integer instructions (Count)
system.timingCpu1.exec_context.thread_0.numFpInsts   5186319061                       # Number of float instructions (Count)
system.timingCpu1.exec_context.thread_0.numVecInsts            0                       # Number of vector instructions (Count)
system.timingCpu1.exec_context.thread_0.numIntRegReads   2411746984                       # Number of times the integer registers were read (Count)
system.timingCpu1.exec_context.thread_0.numIntRegWrites   1107074181                       # Number of times the integer registers were written (Count)
system.timingCpu1.exec_context.thread_0.numFpRegReads   9430653277                       # Number of times the floating registers were read (Count)
system.timingCpu1.exec_context.thread_0.numFpRegWrites   4951962033                       # Number of times the floating registers were written (Count)
system.timingCpu1.exec_context.thread_0.numVecRegReads            0                       # Number of times the vector registers were read (Count)
system.timingCpu1.exec_context.thread_0.numVecRegWrites            0                       # Number of times the vector registers were written (Count)
system.timingCpu1.exec_context.thread_0.numVecPredRegReads            0                       # Number of times the predicate registers were read (Count)
system.timingCpu1.exec_context.thread_0.numVecPredRegWrites            0                       # Number of times the predicate registers were written (Count)
system.timingCpu1.exec_context.thread_0.numCCRegReads    150890484                       # Number of times the CC registers were read (Count)
system.timingCpu1.exec_context.thread_0.numCCRegWrites    336220182                       # Number of times the CC registers were written (Count)
system.timingCpu1.exec_context.thread_0.numMiscRegReads   2261337358                       # Number of times the Misc registers were read (Count)
system.timingCpu1.exec_context.thread_0.numMiscRegWrites       188992                       # Number of times the Misc registers were written (Count)
system.timingCpu1.exec_context.thread_0.numMemRefs   1636078778                       # Number of memory refs (Count)
system.timingCpu1.exec_context.thread_0.numLoadInsts   1352347590                       # Number of load instructions (Count)
system.timingCpu1.exec_context.thread_0.numStoreInsts    283731188                       # Number of store instructions (Count)
system.timingCpu1.exec_context.thread_0.numIdleCycles 24564666.998767                       # Number of idle cycles (Cycle)
system.timingCpu1.exec_context.thread_0.numBusyCycles 19975435332.001232                       # Number of busy cycles (Cycle)
system.timingCpu1.exec_context.thread_0.notIdleFraction     0.998772                       # Percentage of non-idle cycles (Ratio)
system.timingCpu1.exec_context.thread_0.idleFraction     0.001228                       # Percentage of idle cycles (Ratio)
system.timingCpu1.exec_context.thread_0.numBranches     54923865                       # Number of branches fetched (Count)
system.timingCpu1.exec_context.thread_0.statExecutedInstType::No_OpClass       238733      0.00%      0.00% # Class of executed instruction. (Count)
system.timingCpu1.exec_context.thread_0.statExecutedInstType::IntAlu   1742802479     27.13%     27.14% # Class of executed instruction. (Count)
system.timingCpu1.exec_context.thread_0.statExecutedInstType::IntMult      4445783      0.07%     27.21% # Class of executed instruction. (Count)
system.timingCpu1.exec_context.thread_0.statExecutedInstType::IntDiv       228107      0.00%     27.21% # Class of executed instruction. (Count)
system.timingCpu1.exec_context.thread_0.statExecutedInstType::FloatAdd    289551010      4.51%     31.72% # Class of executed instruction. (Count)
system.timingCpu1.exec_context.thread_0.statExecutedInstType::FloatCmp            0      0.00%     31.72% # Class of executed instruction. (Count)
system.timingCpu1.exec_context.thread_0.statExecutedInstType::FloatCvt          336      0.00%     31.72% # Class of executed instruction. (Count)
system.timingCpu1.exec_context.thread_0.statExecutedInstType::FloatMult            0      0.00%     31.72% # Class of executed instruction. (Count)
system.timingCpu1.exec_context.thread_0.statExecutedInstType::FloatMultAcc            0      0.00%     31.72% # Class of executed instruction. (Count)
system.timingCpu1.exec_context.thread_0.statExecutedInstType::FloatDiv            0      0.00%     31.72% # Class of executed instruction. (Count)
system.timingCpu1.exec_context.thread_0.statExecutedInstType::FloatMisc            0      0.00%     31.72% # Class of executed instruction. (Count)
system.timingCpu1.exec_context.thread_0.statExecutedInstType::FloatSqrt            0      0.00%     31.72% # Class of executed instruction. (Count)
system.timingCpu1.exec_context.thread_0.statExecutedInstType::SimdAdd           40      0.00%     31.72% # Class of executed instruction. (Count)
system.timingCpu1.exec_context.thread_0.statExecutedInstType::SimdAddAcc            0      0.00%     31.72% # Class of executed instruction. (Count)
system.timingCpu1.exec_context.thread_0.statExecutedInstType::SimdAlu    160922281      2.51%     34.22% # Class of executed instruction. (Count)
system.timingCpu1.exec_context.thread_0.statExecutedInstType::SimdCmp            0      0.00%     34.22% # Class of executed instruction. (Count)
system.timingCpu1.exec_context.thread_0.statExecutedInstType::SimdCvt           80      0.00%     34.22% # Class of executed instruction. (Count)
system.timingCpu1.exec_context.thread_0.statExecutedInstType::SimdMisc     80461150      1.25%     35.48% # Class of executed instruction. (Count)
system.timingCpu1.exec_context.thread_0.statExecutedInstType::SimdMult            0      0.00%     35.48% # Class of executed instruction. (Count)
system.timingCpu1.exec_context.thread_0.statExecutedInstType::SimdMultAcc            0      0.00%     35.48% # Class of executed instruction. (Count)
system.timingCpu1.exec_context.thread_0.statExecutedInstType::SimdShift            5      0.00%     35.48% # Class of executed instruction. (Count)
system.timingCpu1.exec_context.thread_0.statExecutedInstType::SimdShiftAcc            0      0.00%     35.48% # Class of executed instruction. (Count)
system.timingCpu1.exec_context.thread_0.statExecutedInstType::SimdDiv            0      0.00%     35.48% # Class of executed instruction. (Count)
system.timingCpu1.exec_context.thread_0.statExecutedInstType::SimdSqrt            0      0.00%     35.48% # Class of executed instruction. (Count)
system.timingCpu1.exec_context.thread_0.statExecutedInstType::SimdFloatAdd   1229875711     19.15%     54.63% # Class of executed instruction. (Count)
system.timingCpu1.exec_context.thread_0.statExecutedInstType::SimdFloatAlu            0      0.00%     54.63% # Class of executed instruction. (Count)
system.timingCpu1.exec_context.thread_0.statExecutedInstType::SimdFloatCmp            0      0.00%     54.63% # Class of executed instruction. (Count)
system.timingCpu1.exec_context.thread_0.statExecutedInstType::SimdFloatCvt     80461110      1.25%     55.88% # Class of executed instruction. (Count)
system.timingCpu1.exec_context.thread_0.statExecutedInstType::SimdFloatDiv     55889253      0.87%     56.75% # Class of executed instruction. (Count)
system.timingCpu1.exec_context.thread_0.statExecutedInstType::SimdFloatMisc            0      0.00%     56.75% # Class of executed instruction. (Count)
system.timingCpu1.exec_context.thread_0.statExecutedInstType::SimdFloatMult   1141897895     17.78%     74.53% # Class of executed instruction. (Count)
system.timingCpu1.exec_context.thread_0.statExecutedInstType::SimdFloatMultAcc            0      0.00%     74.53% # Class of executed instruction. (Count)
system.timingCpu1.exec_context.thread_0.statExecutedInstType::SimdFloatSqrt            0      0.00%     74.53% # Class of executed instruction. (Count)
system.timingCpu1.exec_context.thread_0.statExecutedInstType::SimdReduceAdd            0      0.00%     74.53% # Class of executed instruction. (Count)
system.timingCpu1.exec_context.thread_0.statExecutedInstType::SimdReduceAlu            0      0.00%     74.53% # Class of executed instruction. (Count)
system.timingCpu1.exec_context.thread_0.statExecutedInstType::SimdReduceCmp            0      0.00%     74.53% # Class of executed instruction. (Count)
system.timingCpu1.exec_context.thread_0.statExecutedInstType::SimdFloatReduceAdd            0      0.00%     74.53% # Class of executed instruction. (Count)
system.timingCpu1.exec_context.thread_0.statExecutedInstType::SimdFloatReduceCmp            0      0.00%     74.53% # Class of executed instruction. (Count)
system.timingCpu1.exec_context.thread_0.statExecutedInstType::SimdAes            0      0.00%     74.53% # Class of executed instruction. (Count)
system.timingCpu1.exec_context.thread_0.statExecutedInstType::SimdAesMix            0      0.00%     74.53% # Class of executed instruction. (Count)
system.timingCpu1.exec_context.thread_0.statExecutedInstType::SimdSha1Hash            0      0.00%     74.53% # Class of executed instruction. (Count)
system.timingCpu1.exec_context.thread_0.statExecutedInstType::SimdSha1Hash2            0      0.00%     74.53% # Class of executed instruction. (Count)
system.timingCpu1.exec_context.thread_0.statExecutedInstType::SimdSha256Hash            0      0.00%     74.53% # Class of executed instruction. (Count)
system.timingCpu1.exec_context.thread_0.statExecutedInstType::SimdSha256Hash2            0      0.00%     74.53% # Class of executed instruction. (Count)
system.timingCpu1.exec_context.thread_0.statExecutedInstType::SimdShaSigma2            0      0.00%     74.53% # Class of executed instruction. (Count)
system.timingCpu1.exec_context.thread_0.statExecutedInstType::SimdShaSigma3            0      0.00%     74.53% # Class of executed instruction. (Count)
system.timingCpu1.exec_context.thread_0.statExecutedInstType::SimdPredAlu            0      0.00%     74.53% # Class of executed instruction. (Count)
system.timingCpu1.exec_context.thread_0.statExecutedInstType::MemRead    114483757      1.78%     76.31% # Class of executed instruction. (Count)
system.timingCpu1.exec_context.thread_0.statExecutedInstType::MemWrite     49374536      0.77%     77.08% # Class of executed instruction. (Count)
system.timingCpu1.exec_context.thread_0.statExecutedInstType::FloatMemRead   1237863833     19.27%     96.35% # Class of executed instruction. (Count)
system.timingCpu1.exec_context.thread_0.statExecutedInstType::FloatMemWrite    234356652      3.65%    100.00% # Class of executed instruction. (Count)
system.timingCpu1.exec_context.thread_0.statExecutedInstType::IprAccess            0      0.00%    100.00% # Class of executed instruction. (Count)
system.timingCpu1.exec_context.thread_0.statExecutedInstType::InstPrefetch            0      0.00%    100.00% # Class of executed instruction. (Count)
system.timingCpu1.exec_context.thread_0.statExecutedInstType::total   6422852751                       # Class of executed instruction. (Count)
system.timingCpu1.mmu.dtb.rdAccesses       1352561771                       # TLB accesses on read requests (Count)
system.timingCpu1.mmu.dtb.wrAccesses        283748360                       # TLB accesses on write requests (Count)
system.timingCpu1.mmu.dtb.rdMisses             215922                       # TLB misses on read requests (Count)
system.timingCpu1.mmu.dtb.wrMisses              18236                       # TLB misses on write requests (Count)
system.timingCpu1.mmu.dtb.walker.power_state.pwrStateResidencyTicks::UNDEFINED 23387763875000                       # Cumulative time (in ticks) in various power states (Tick)
system.timingCpu1.mmu.itb.rdAccesses                0                       # TLB accesses on read requests (Count)
system.timingCpu1.mmu.itb.wrAccesses       5366869494                       # TLB accesses on write requests (Count)
system.timingCpu1.mmu.itb.rdMisses                  0                       # TLB misses on read requests (Count)
system.timingCpu1.mmu.itb.wrMisses               9419                       # TLB misses on write requests (Count)
system.timingCpu1.mmu.itb.walker.power_state.pwrStateResidencyTicks::UNDEFINED 23387763875000                       # Cumulative time (in ticks) in various power states (Tick)
system.timingCpu1.power_state.numTransitions           18                       # Number of power state transitions (Count)
system.timingCpu1.power_state.ticksClkGated::samples            9                       # Distribution of time spent in the clock gated state (Tick)
system.timingCpu1.power_state.ticksClkGated::mean 682351861.111111                       # Distribution of time spent in the clock gated state (Tick)
system.timingCpu1.power_state.ticksClkGated::stdev 471151985.883190                       # Distribution of time spent in the clock gated state (Tick)
system.timingCpu1.power_state.ticksClkGated::1000-5e+10            9    100.00%    100.00% # Distribution of time spent in the clock gated state (Tick)
system.timingCpu1.power_state.ticksClkGated::min_value      1512750                       # Distribution of time spent in the clock gated state (Tick)
system.timingCpu1.power_state.ticksClkGated::max_value    998177750                       # Distribution of time spent in the clock gated state (Tick)
system.timingCpu1.power_state.ticksClkGated::total            9                       # Distribution of time spent in the clock gated state (Tick)
system.timingCpu1.power_state.pwrStateResidencyTicks::ON 1909666689000                       # Cumulative time (in ticks) in various power states (Tick)
system.timingCpu1.power_state.pwrStateResidencyTicks::CLK_GATED   6141166750                       # Cumulative time (in ticks) in various power states (Tick)
system.timingCpu1.power_state.pwrStateResidencyTicks::OFF 21471956019250                       # Cumulative time (in ticks) in various power states (Tick)
system.timingCpu1.thread_0.numInsts                 0                       # Number of Instructions committed (Count)
system.timingCpu1.thread_0.numOps                   0                       # Number of Ops committed (Count)
system.timingCpu1.thread_0.numMemRefs               0                       # Number of Memory References (Count)
system.workload.inst.arm                            0                       # number of arm instructions executed (Count)
system.workload.inst.quiesce                        0                       # number of quiesce instructions executed (Count)

---------- End Simulation Statistics   ----------
