
---------- Begin Simulation Statistics ----------
simSeconds                                   0.001000                       # Number of seconds simulated (Second)
simTicks                                   1000326000                       # Number of ticks simulated (Tick)
finalTick                                  1000326000                       # Number of ticks from beginning of simulation (restored from checkpoints and never reset) (Tick)
simFreq                                  1000000000000                       # The number of ticks per simulated second ((Tick/Second))
hostSeconds                                     16.68                       # Real time elapsed on the host (Second)
hostTickRate                                 59962444                       # The number of ticks simulated per host second (ticks/s) ((Tick/Second))
hostMemory                                   17487732                       # Number of bytes of host memory used (Byte)
system.clk_domain.clock                           250                       # Clock period in ticks (Tick)
system.clk_domain.voltage_domain.voltage            1                       # Voltage in Volts (Volt)
system.dcache_ctrl.avgPriority_generator::samples    107393.00                       # Average QoS priority value for accepted requests (Count)
system.dcache_ctrl.priorityMinLatency    0.000001767000                       # per QoS priority minimum request to response latency (Second)
system.dcache_ctrl.priorityMaxLatency    0.000013986500                       # per QoS priority maximum request to response latency (Second)
system.dcache_ctrl.numReadWriteTurnArounds            0                       # Number of turnarounds from READ to WRITE (Count)
system.dcache_ctrl.numWriteReadTurnArounds            0                       # Number of turnarounds from WRITE to READ (Count)
system.dcache_ctrl.numStayReadState                 0                       # Number of times bus staying in READ state (Count)
system.dcache_ctrl.numStayWriteState                0                       # Number of times bus staying in WRITE state (Count)
system.dcache_ctrl.readReqs                         0                       # Number of read requests accepted (Count)
system.dcache_ctrl.writeReqs                        0                       # Number of write requests accepted (Count)
system.dcache_ctrl.readBursts                       0                       # Number of controller read bursts, including those serviced by the write queue (Count)
system.dcache_ctrl.writeBursts                      0                       # Number of controller write bursts, including those merged in the write queue (Count)
system.dcache_ctrl.servicedByWrQ                    0                       # Number of controller read bursts serviced by the write queue (Count)
system.dcache_ctrl.mergedWrBursts                   0                       # Number of controller write bursts merged with an existing one (Count)
system.dcache_ctrl.neitherReadNorWriteReqs            0                       # Number of requests that are neither read nor write (Count)
system.dcache_ctrl.avgRdQLen                     0.00                       # Average read queue length when enqueuing ((Count/Tick))
system.dcache_ctrl.avgWrQLen                     0.00                       # Average write queue length when enqueuing ((Count/Tick))
system.dcache_ctrl.numRdRetry                       0                       # Number of times read queue was full causing retry (Count)
system.dcache_ctrl.numWrRetry                       0                       # Number of times write queue was full causing retry (Count)
system.dcache_ctrl.readPktSize::0                   0                       # Read request sizes (log2) (Count)
system.dcache_ctrl.readPktSize::1                   0                       # Read request sizes (log2) (Count)
system.dcache_ctrl.readPktSize::2                   0                       # Read request sizes (log2) (Count)
system.dcache_ctrl.readPktSize::3                   0                       # Read request sizes (log2) (Count)
system.dcache_ctrl.readPktSize::4                   0                       # Read request sizes (log2) (Count)
system.dcache_ctrl.readPktSize::5                   0                       # Read request sizes (log2) (Count)
system.dcache_ctrl.readPktSize::6                   0                       # Read request sizes (log2) (Count)
system.dcache_ctrl.writePktSize::0                  0                       # Write request sizes (log2) (Count)
system.dcache_ctrl.writePktSize::1                  0                       # Write request sizes (log2) (Count)
system.dcache_ctrl.writePktSize::2                  0                       # Write request sizes (log2) (Count)
system.dcache_ctrl.writePktSize::3                  0                       # Write request sizes (log2) (Count)
system.dcache_ctrl.writePktSize::4                  0                       # Write request sizes (log2) (Count)
system.dcache_ctrl.writePktSize::5                  0                       # Write request sizes (log2) (Count)
system.dcache_ctrl.writePktSize::6                  0                       # Write request sizes (log2) (Count)
system.dcache_ctrl.rdQLenPdf::0                     0                       # What read queue length does an incoming req see (Count)
system.dcache_ctrl.rdQLenPdf::1                     0                       # What read queue length does an incoming req see (Count)
system.dcache_ctrl.rdQLenPdf::2                     0                       # What read queue length does an incoming req see (Count)
system.dcache_ctrl.rdQLenPdf::3                     0                       # What read queue length does an incoming req see (Count)
system.dcache_ctrl.rdQLenPdf::4                     0                       # What read queue length does an incoming req see (Count)
system.dcache_ctrl.rdQLenPdf::5                     0                       # What read queue length does an incoming req see (Count)
system.dcache_ctrl.rdQLenPdf::6                     0                       # What read queue length does an incoming req see (Count)
system.dcache_ctrl.rdQLenPdf::7                     0                       # What read queue length does an incoming req see (Count)
system.dcache_ctrl.rdQLenPdf::8                     0                       # What read queue length does an incoming req see (Count)
system.dcache_ctrl.rdQLenPdf::9                     0                       # What read queue length does an incoming req see (Count)
system.dcache_ctrl.rdQLenPdf::10                    0                       # What read queue length does an incoming req see (Count)
system.dcache_ctrl.rdQLenPdf::11                    0                       # What read queue length does an incoming req see (Count)
system.dcache_ctrl.rdQLenPdf::12                    0                       # What read queue length does an incoming req see (Count)
system.dcache_ctrl.rdQLenPdf::13                    0                       # What read queue length does an incoming req see (Count)
system.dcache_ctrl.rdQLenPdf::14                    0                       # What read queue length does an incoming req see (Count)
system.dcache_ctrl.rdQLenPdf::15                    0                       # What read queue length does an incoming req see (Count)
system.dcache_ctrl.rdQLenPdf::16                    0                       # What read queue length does an incoming req see (Count)
system.dcache_ctrl.rdQLenPdf::17                    0                       # What read queue length does an incoming req see (Count)
system.dcache_ctrl.rdQLenPdf::18                    0                       # What read queue length does an incoming req see (Count)
system.dcache_ctrl.rdQLenPdf::19                    0                       # What read queue length does an incoming req see (Count)
system.dcache_ctrl.rdQLenPdf::20                    0                       # What read queue length does an incoming req see (Count)
system.dcache_ctrl.rdQLenPdf::21                    0                       # What read queue length does an incoming req see (Count)
system.dcache_ctrl.rdQLenPdf::22                    0                       # What read queue length does an incoming req see (Count)
system.dcache_ctrl.rdQLenPdf::23                    0                       # What read queue length does an incoming req see (Count)
system.dcache_ctrl.rdQLenPdf::24                    0                       # What read queue length does an incoming req see (Count)
system.dcache_ctrl.rdQLenPdf::25                    0                       # What read queue length does an incoming req see (Count)
system.dcache_ctrl.rdQLenPdf::26                    0                       # What read queue length does an incoming req see (Count)
system.dcache_ctrl.rdQLenPdf::27                    0                       # What read queue length does an incoming req see (Count)
system.dcache_ctrl.rdQLenPdf::28                    0                       # What read queue length does an incoming req see (Count)
system.dcache_ctrl.rdQLenPdf::29                    0                       # What read queue length does an incoming req see (Count)
system.dcache_ctrl.rdQLenPdf::30                    0                       # What read queue length does an incoming req see (Count)
system.dcache_ctrl.rdQLenPdf::31                    0                       # What read queue length does an incoming req see (Count)
system.dcache_ctrl.rdQLenPdf::32                    0                       # What read queue length does an incoming req see (Count)
system.dcache_ctrl.rdQLenPdf::33                    0                       # What read queue length does an incoming req see (Count)
system.dcache_ctrl.rdQLenPdf::34                    0                       # What read queue length does an incoming req see (Count)
system.dcache_ctrl.rdQLenPdf::35                    0                       # What read queue length does an incoming req see (Count)
system.dcache_ctrl.rdQLenPdf::36                    0                       # What read queue length does an incoming req see (Count)
system.dcache_ctrl.rdQLenPdf::37                    0                       # What read queue length does an incoming req see (Count)
system.dcache_ctrl.rdQLenPdf::38                    0                       # What read queue length does an incoming req see (Count)
system.dcache_ctrl.rdQLenPdf::39                    0                       # What read queue length does an incoming req see (Count)
system.dcache_ctrl.rdQLenPdf::40                    0                       # What read queue length does an incoming req see (Count)
system.dcache_ctrl.rdQLenPdf::41                    0                       # What read queue length does an incoming req see (Count)
system.dcache_ctrl.rdQLenPdf::42                    0                       # What read queue length does an incoming req see (Count)
system.dcache_ctrl.rdQLenPdf::43                    0                       # What read queue length does an incoming req see (Count)
system.dcache_ctrl.rdQLenPdf::44                    0                       # What read queue length does an incoming req see (Count)
system.dcache_ctrl.rdQLenPdf::45                    0                       # What read queue length does an incoming req see (Count)
system.dcache_ctrl.rdQLenPdf::46                    0                       # What read queue length does an incoming req see (Count)
system.dcache_ctrl.rdQLenPdf::47                    0                       # What read queue length does an incoming req see (Count)
system.dcache_ctrl.rdQLenPdf::48                    0                       # What read queue length does an incoming req see (Count)
system.dcache_ctrl.rdQLenPdf::49                    0                       # What read queue length does an incoming req see (Count)
system.dcache_ctrl.rdQLenPdf::50                    0                       # What read queue length does an incoming req see (Count)
system.dcache_ctrl.rdQLenPdf::51                    0                       # What read queue length does an incoming req see (Count)
system.dcache_ctrl.rdQLenPdf::52                    0                       # What read queue length does an incoming req see (Count)
system.dcache_ctrl.rdQLenPdf::53                    0                       # What read queue length does an incoming req see (Count)
system.dcache_ctrl.rdQLenPdf::54                    0                       # What read queue length does an incoming req see (Count)
system.dcache_ctrl.rdQLenPdf::55                    0                       # What read queue length does an incoming req see (Count)
system.dcache_ctrl.rdQLenPdf::56                    0                       # What read queue length does an incoming req see (Count)
system.dcache_ctrl.rdQLenPdf::57                    0                       # What read queue length does an incoming req see (Count)
system.dcache_ctrl.rdQLenPdf::58                    0                       # What read queue length does an incoming req see (Count)
system.dcache_ctrl.rdQLenPdf::59                    0                       # What read queue length does an incoming req see (Count)
system.dcache_ctrl.rdQLenPdf::60                    0                       # What read queue length does an incoming req see (Count)
system.dcache_ctrl.rdQLenPdf::61                    0                       # What read queue length does an incoming req see (Count)
system.dcache_ctrl.rdQLenPdf::62                    0                       # What read queue length does an incoming req see (Count)
system.dcache_ctrl.rdQLenPdf::63                    0                       # What read queue length does an incoming req see (Count)
system.dcache_ctrl.wrQLenPdf::0                     0                       # What write queue length does an incoming req see (Count)
system.dcache_ctrl.wrQLenPdf::1                     0                       # What write queue length does an incoming req see (Count)
system.dcache_ctrl.wrQLenPdf::2                     0                       # What write queue length does an incoming req see (Count)
system.dcache_ctrl.wrQLenPdf::3                     0                       # What write queue length does an incoming req see (Count)
system.dcache_ctrl.wrQLenPdf::4                     0                       # What write queue length does an incoming req see (Count)
system.dcache_ctrl.wrQLenPdf::5                     0                       # What write queue length does an incoming req see (Count)
system.dcache_ctrl.wrQLenPdf::6                     0                       # What write queue length does an incoming req see (Count)
system.dcache_ctrl.wrQLenPdf::7                     0                       # What write queue length does an incoming req see (Count)
system.dcache_ctrl.wrQLenPdf::8                     0                       # What write queue length does an incoming req see (Count)
system.dcache_ctrl.wrQLenPdf::9                     0                       # What write queue length does an incoming req see (Count)
system.dcache_ctrl.wrQLenPdf::10                    0                       # What write queue length does an incoming req see (Count)
system.dcache_ctrl.wrQLenPdf::11                    0                       # What write queue length does an incoming req see (Count)
system.dcache_ctrl.wrQLenPdf::12                    0                       # What write queue length does an incoming req see (Count)
system.dcache_ctrl.wrQLenPdf::13                    0                       # What write queue length does an incoming req see (Count)
system.dcache_ctrl.wrQLenPdf::14                    0                       # What write queue length does an incoming req see (Count)
system.dcache_ctrl.wrQLenPdf::15                    0                       # What write queue length does an incoming req see (Count)
system.dcache_ctrl.wrQLenPdf::16                    0                       # What write queue length does an incoming req see (Count)
system.dcache_ctrl.wrQLenPdf::17                    0                       # What write queue length does an incoming req see (Count)
system.dcache_ctrl.wrQLenPdf::18                    0                       # What write queue length does an incoming req see (Count)
system.dcache_ctrl.wrQLenPdf::19                    0                       # What write queue length does an incoming req see (Count)
system.dcache_ctrl.wrQLenPdf::20                    0                       # What write queue length does an incoming req see (Count)
system.dcache_ctrl.wrQLenPdf::21                    0                       # What write queue length does an incoming req see (Count)
system.dcache_ctrl.wrQLenPdf::22                    0                       # What write queue length does an incoming req see (Count)
system.dcache_ctrl.wrQLenPdf::23                    0                       # What write queue length does an incoming req see (Count)
system.dcache_ctrl.wrQLenPdf::24                    0                       # What write queue length does an incoming req see (Count)
system.dcache_ctrl.wrQLenPdf::25                    0                       # What write queue length does an incoming req see (Count)
system.dcache_ctrl.wrQLenPdf::26                    0                       # What write queue length does an incoming req see (Count)
system.dcache_ctrl.wrQLenPdf::27                    0                       # What write queue length does an incoming req see (Count)
system.dcache_ctrl.wrQLenPdf::28                    0                       # What write queue length does an incoming req see (Count)
system.dcache_ctrl.wrQLenPdf::29                    0                       # What write queue length does an incoming req see (Count)
system.dcache_ctrl.wrQLenPdf::30                    0                       # What write queue length does an incoming req see (Count)
system.dcache_ctrl.wrQLenPdf::31                    0                       # What write queue length does an incoming req see (Count)
system.dcache_ctrl.wrQLenPdf::32                    0                       # What write queue length does an incoming req see (Count)
system.dcache_ctrl.wrQLenPdf::33                    0                       # What write queue length does an incoming req see (Count)
system.dcache_ctrl.wrQLenPdf::34                    0                       # What write queue length does an incoming req see (Count)
system.dcache_ctrl.wrQLenPdf::35                    0                       # What write queue length does an incoming req see (Count)
system.dcache_ctrl.wrQLenPdf::36                    0                       # What write queue length does an incoming req see (Count)
system.dcache_ctrl.wrQLenPdf::37                    0                       # What write queue length does an incoming req see (Count)
system.dcache_ctrl.wrQLenPdf::38                    0                       # What write queue length does an incoming req see (Count)
system.dcache_ctrl.wrQLenPdf::39                    0                       # What write queue length does an incoming req see (Count)
system.dcache_ctrl.wrQLenPdf::40                    0                       # What write queue length does an incoming req see (Count)
system.dcache_ctrl.wrQLenPdf::41                    0                       # What write queue length does an incoming req see (Count)
system.dcache_ctrl.wrQLenPdf::42                    0                       # What write queue length does an incoming req see (Count)
system.dcache_ctrl.wrQLenPdf::43                    0                       # What write queue length does an incoming req see (Count)
system.dcache_ctrl.wrQLenPdf::44                    0                       # What write queue length does an incoming req see (Count)
system.dcache_ctrl.wrQLenPdf::45                    0                       # What write queue length does an incoming req see (Count)
system.dcache_ctrl.wrQLenPdf::46                    0                       # What write queue length does an incoming req see (Count)
system.dcache_ctrl.wrQLenPdf::47                    0                       # What write queue length does an incoming req see (Count)
system.dcache_ctrl.wrQLenPdf::48                    0                       # What write queue length does an incoming req see (Count)
system.dcache_ctrl.wrQLenPdf::49                    0                       # What write queue length does an incoming req see (Count)
system.dcache_ctrl.wrQLenPdf::50                    0                       # What write queue length does an incoming req see (Count)
system.dcache_ctrl.wrQLenPdf::51                    0                       # What write queue length does an incoming req see (Count)
system.dcache_ctrl.wrQLenPdf::52                    0                       # What write queue length does an incoming req see (Count)
system.dcache_ctrl.wrQLenPdf::53                    0                       # What write queue length does an incoming req see (Count)
system.dcache_ctrl.wrQLenPdf::54                    0                       # What write queue length does an incoming req see (Count)
system.dcache_ctrl.wrQLenPdf::55                    0                       # What write queue length does an incoming req see (Count)
system.dcache_ctrl.wrQLenPdf::56                    0                       # What write queue length does an incoming req see (Count)
system.dcache_ctrl.wrQLenPdf::57                    0                       # What write queue length does an incoming req see (Count)
system.dcache_ctrl.wrQLenPdf::58                    0                       # What write queue length does an incoming req see (Count)
system.dcache_ctrl.wrQLenPdf::59                    0                       # What write queue length does an incoming req see (Count)
system.dcache_ctrl.wrQLenPdf::60                    0                       # What write queue length does an incoming req see (Count)
system.dcache_ctrl.wrQLenPdf::61                    0                       # What write queue length does an incoming req see (Count)
system.dcache_ctrl.wrQLenPdf::62                    0                       # What write queue length does an incoming req see (Count)
system.dcache_ctrl.wrQLenPdf::63                    0                       # What write queue length does an incoming req see (Count)
system.dcache_ctrl.bytesReadWrQ                     0                       # Total number of bytes read from write queue (Byte)
system.dcache_ctrl.bytesReadSys                     0                       # Total read bytes from the system interface side (Byte)
system.dcache_ctrl.bytesWrittenSys                  0                       # Total written bytes from the system interface side (Byte)
system.dcache_ctrl.avgRdBWSys              0.00000000                       # Average system read bandwidth in Byte/s ((Byte/Second))
system.dcache_ctrl.avgWrBWSys              0.00000000                       # Average system write bandwidth in Byte/s ((Byte/Second))
system.dcache_ctrl.totGap                           0                       # Total gap between requests (Tick)
system.dcache_ctrl.avgGap                         nan                       # Average gap between requests ((Tick/Count))
system.dcache_ctrl.requestorReadBytes::generator      6861632                       # Per-requestor bytes read from memory (Byte)
system.dcache_ctrl.requestorWriteBytes::generator      6840384                       # Per-requestor bytes write to memory (Byte)
system.dcache_ctrl.requestorReadRate::generator 6859395836.957152366638                       # Per-requestor bytes read from memory rate ((Byte/Second))
system.dcache_ctrl.requestorWriteRate::generator 6838154761.547736167908                       # Per-requestor bytes write to memory rate ((Byte/Second))
system.dcache_ctrl.requestorReadTotalLat::generator 247864757000                       # Per-requestor read total memory access latency (Tick)
system.dcache_ctrl.requestorWriteTotalLat::generator 514656561000                       # Per-requestor write total memory access latency (Tick)
system.dcache_ctrl.requestorReadAvgLat::generator          inf                       # Per-requestor read average memory access latency ((Tick/Count))
system.dcache_ctrl.requestorWriteAvgLat::generator          inf                       # Per-requestor write average memory access latency ((Tick/Count))
system.dcache_ctrl.readReqs                    107393                       # Number of read requests accepted (Count)
system.dcache_ctrl.writeReqs                        0                       # Number of write requests accepted (Count)
system.dcache_ctrl.readBursts                  107393                       # Number of controller read bursts, including those serviced by the write queue (Count)
system.dcache_ctrl.writeBursts                      0                       # Number of controller write bursts, including those merged in the write queue (Count)
system.dcache_ctrl.servicedByWrQ                    0                       # Number of controller read bursts serviced by the write queue (Count)
system.dcache_ctrl.mergedWrBursts                   0                       # Number of controller write bursts merged with an existing one (Count)
system.dcache_ctrl.neitherReadNorWriteReqs            0                       # Number of requests that are neither read nor write (Count)
system.dcache_ctrl.avgRdQLen                     0.00                       # Average read queue length when enqueuing ((Count/Tick))
system.dcache_ctrl.avgWrQLen                     0.00                       # Average write queue length when enqueuing ((Count/Tick))
system.dcache_ctrl.numRdRetry                  105563                       # Number of times read queue was full causing retry (Count)
system.dcache_ctrl.numWrRetry                       0                       # Number of times write queue was full causing retry (Count)
system.dcache_ctrl.readPktSize::0                   0                       # Read request sizes (log2) (Count)
system.dcache_ctrl.readPktSize::1                   0                       # Read request sizes (log2) (Count)
system.dcache_ctrl.readPktSize::2                   0                       # Read request sizes (log2) (Count)
system.dcache_ctrl.readPktSize::3                   0                       # Read request sizes (log2) (Count)
system.dcache_ctrl.readPktSize::4                   0                       # Read request sizes (log2) (Count)
system.dcache_ctrl.readPktSize::5              107393                       # Read request sizes (log2) (Count)
system.dcache_ctrl.readPktSize::6                   0                       # Read request sizes (log2) (Count)
system.dcache_ctrl.writePktSize::0                  0                       # Write request sizes (log2) (Count)
system.dcache_ctrl.writePktSize::1                  0                       # Write request sizes (log2) (Count)
system.dcache_ctrl.writePktSize::2                  0                       # Write request sizes (log2) (Count)
system.dcache_ctrl.writePktSize::3                  0                       # Write request sizes (log2) (Count)
system.dcache_ctrl.writePktSize::4                  0                       # Write request sizes (log2) (Count)
system.dcache_ctrl.writePktSize::5                  0                       # Write request sizes (log2) (Count)
system.dcache_ctrl.writePktSize::6                  0                       # Write request sizes (log2) (Count)
system.dcache_ctrl.rdQLenPdf::0                     0                       # What read queue length does an incoming req see (Count)
system.dcache_ctrl.rdQLenPdf::1                     0                       # What read queue length does an incoming req see (Count)
system.dcache_ctrl.rdQLenPdf::2                     0                       # What read queue length does an incoming req see (Count)
system.dcache_ctrl.rdQLenPdf::3                     0                       # What read queue length does an incoming req see (Count)
system.dcache_ctrl.rdQLenPdf::4                     0                       # What read queue length does an incoming req see (Count)
system.dcache_ctrl.rdQLenPdf::5                     0                       # What read queue length does an incoming req see (Count)
system.dcache_ctrl.rdQLenPdf::6                     0                       # What read queue length does an incoming req see (Count)
system.dcache_ctrl.rdQLenPdf::7                     0                       # What read queue length does an incoming req see (Count)
system.dcache_ctrl.rdQLenPdf::8                     0                       # What read queue length does an incoming req see (Count)
system.dcache_ctrl.rdQLenPdf::9                     0                       # What read queue length does an incoming req see (Count)
system.dcache_ctrl.rdQLenPdf::10                    0                       # What read queue length does an incoming req see (Count)
system.dcache_ctrl.rdQLenPdf::11                    0                       # What read queue length does an incoming req see (Count)
system.dcache_ctrl.rdQLenPdf::12                    0                       # What read queue length does an incoming req see (Count)
system.dcache_ctrl.rdQLenPdf::13                    0                       # What read queue length does an incoming req see (Count)
system.dcache_ctrl.rdQLenPdf::14                    0                       # What read queue length does an incoming req see (Count)
system.dcache_ctrl.rdQLenPdf::15                    0                       # What read queue length does an incoming req see (Count)
system.dcache_ctrl.rdQLenPdf::16                    0                       # What read queue length does an incoming req see (Count)
system.dcache_ctrl.rdQLenPdf::17                    0                       # What read queue length does an incoming req see (Count)
system.dcache_ctrl.rdQLenPdf::18                    0                       # What read queue length does an incoming req see (Count)
system.dcache_ctrl.rdQLenPdf::19                    0                       # What read queue length does an incoming req see (Count)
system.dcache_ctrl.rdQLenPdf::20                    0                       # What read queue length does an incoming req see (Count)
system.dcache_ctrl.rdQLenPdf::21                    0                       # What read queue length does an incoming req see (Count)
system.dcache_ctrl.rdQLenPdf::22                    0                       # What read queue length does an incoming req see (Count)
system.dcache_ctrl.rdQLenPdf::23                    0                       # What read queue length does an incoming req see (Count)
system.dcache_ctrl.rdQLenPdf::24                    0                       # What read queue length does an incoming req see (Count)
system.dcache_ctrl.rdQLenPdf::25                    0                       # What read queue length does an incoming req see (Count)
system.dcache_ctrl.rdQLenPdf::26                    0                       # What read queue length does an incoming req see (Count)
system.dcache_ctrl.rdQLenPdf::27                    0                       # What read queue length does an incoming req see (Count)
system.dcache_ctrl.rdQLenPdf::28                    0                       # What read queue length does an incoming req see (Count)
system.dcache_ctrl.rdQLenPdf::29                    0                       # What read queue length does an incoming req see (Count)
system.dcache_ctrl.rdQLenPdf::30                    0                       # What read queue length does an incoming req see (Count)
system.dcache_ctrl.rdQLenPdf::31                    0                       # What read queue length does an incoming req see (Count)
system.dcache_ctrl.rdQLenPdf::32                    0                       # What read queue length does an incoming req see (Count)
system.dcache_ctrl.rdQLenPdf::33                    0                       # What read queue length does an incoming req see (Count)
system.dcache_ctrl.rdQLenPdf::34                    0                       # What read queue length does an incoming req see (Count)
system.dcache_ctrl.rdQLenPdf::35                    0                       # What read queue length does an incoming req see (Count)
system.dcache_ctrl.rdQLenPdf::36                    0                       # What read queue length does an incoming req see (Count)
system.dcache_ctrl.rdQLenPdf::37                    0                       # What read queue length does an incoming req see (Count)
system.dcache_ctrl.rdQLenPdf::38                    0                       # What read queue length does an incoming req see (Count)
system.dcache_ctrl.rdQLenPdf::39                    0                       # What read queue length does an incoming req see (Count)
system.dcache_ctrl.rdQLenPdf::40                    0                       # What read queue length does an incoming req see (Count)
system.dcache_ctrl.rdQLenPdf::41                    0                       # What read queue length does an incoming req see (Count)
system.dcache_ctrl.rdQLenPdf::42                    0                       # What read queue length does an incoming req see (Count)
system.dcache_ctrl.rdQLenPdf::43                    0                       # What read queue length does an incoming req see (Count)
system.dcache_ctrl.rdQLenPdf::44                    0                       # What read queue length does an incoming req see (Count)
system.dcache_ctrl.rdQLenPdf::45                    0                       # What read queue length does an incoming req see (Count)
system.dcache_ctrl.rdQLenPdf::46                    0                       # What read queue length does an incoming req see (Count)
system.dcache_ctrl.rdQLenPdf::47                    0                       # What read queue length does an incoming req see (Count)
system.dcache_ctrl.rdQLenPdf::48                    0                       # What read queue length does an incoming req see (Count)
system.dcache_ctrl.rdQLenPdf::49                    0                       # What read queue length does an incoming req see (Count)
system.dcache_ctrl.rdQLenPdf::50                    0                       # What read queue length does an incoming req see (Count)
system.dcache_ctrl.rdQLenPdf::51                    0                       # What read queue length does an incoming req see (Count)
system.dcache_ctrl.rdQLenPdf::52                    0                       # What read queue length does an incoming req see (Count)
system.dcache_ctrl.rdQLenPdf::53                    0                       # What read queue length does an incoming req see (Count)
system.dcache_ctrl.rdQLenPdf::54                    0                       # What read queue length does an incoming req see (Count)
system.dcache_ctrl.rdQLenPdf::55                    0                       # What read queue length does an incoming req see (Count)
system.dcache_ctrl.rdQLenPdf::56                    0                       # What read queue length does an incoming req see (Count)
system.dcache_ctrl.rdQLenPdf::57                    0                       # What read queue length does an incoming req see (Count)
system.dcache_ctrl.rdQLenPdf::58                    0                       # What read queue length does an incoming req see (Count)
system.dcache_ctrl.rdQLenPdf::59                    0                       # What read queue length does an incoming req see (Count)
system.dcache_ctrl.rdQLenPdf::60                    0                       # What read queue length does an incoming req see (Count)
system.dcache_ctrl.rdQLenPdf::61                    0                       # What read queue length does an incoming req see (Count)
system.dcache_ctrl.rdQLenPdf::62                    0                       # What read queue length does an incoming req see (Count)
system.dcache_ctrl.rdQLenPdf::63                    0                       # What read queue length does an incoming req see (Count)
system.dcache_ctrl.wrQLenPdf::0                     0                       # What write queue length does an incoming req see (Count)
system.dcache_ctrl.wrQLenPdf::1                     0                       # What write queue length does an incoming req see (Count)
system.dcache_ctrl.wrQLenPdf::2                     0                       # What write queue length does an incoming req see (Count)
system.dcache_ctrl.wrQLenPdf::3                     0                       # What write queue length does an incoming req see (Count)
system.dcache_ctrl.wrQLenPdf::4                     0                       # What write queue length does an incoming req see (Count)
system.dcache_ctrl.wrQLenPdf::5                     0                       # What write queue length does an incoming req see (Count)
system.dcache_ctrl.wrQLenPdf::6                     0                       # What write queue length does an incoming req see (Count)
system.dcache_ctrl.wrQLenPdf::7                     0                       # What write queue length does an incoming req see (Count)
system.dcache_ctrl.wrQLenPdf::8                     0                       # What write queue length does an incoming req see (Count)
system.dcache_ctrl.wrQLenPdf::9                     0                       # What write queue length does an incoming req see (Count)
system.dcache_ctrl.wrQLenPdf::10                    0                       # What write queue length does an incoming req see (Count)
system.dcache_ctrl.wrQLenPdf::11                    0                       # What write queue length does an incoming req see (Count)
system.dcache_ctrl.wrQLenPdf::12                    0                       # What write queue length does an incoming req see (Count)
system.dcache_ctrl.wrQLenPdf::13                    0                       # What write queue length does an incoming req see (Count)
system.dcache_ctrl.wrQLenPdf::14                    0                       # What write queue length does an incoming req see (Count)
system.dcache_ctrl.wrQLenPdf::15                    0                       # What write queue length does an incoming req see (Count)
system.dcache_ctrl.wrQLenPdf::16                    0                       # What write queue length does an incoming req see (Count)
system.dcache_ctrl.wrQLenPdf::17                    0                       # What write queue length does an incoming req see (Count)
system.dcache_ctrl.wrQLenPdf::18                    0                       # What write queue length does an incoming req see (Count)
system.dcache_ctrl.wrQLenPdf::19                    0                       # What write queue length does an incoming req see (Count)
system.dcache_ctrl.wrQLenPdf::20                    0                       # What write queue length does an incoming req see (Count)
system.dcache_ctrl.wrQLenPdf::21                    0                       # What write queue length does an incoming req see (Count)
system.dcache_ctrl.wrQLenPdf::22                    0                       # What write queue length does an incoming req see (Count)
system.dcache_ctrl.wrQLenPdf::23                    0                       # What write queue length does an incoming req see (Count)
system.dcache_ctrl.wrQLenPdf::24                    0                       # What write queue length does an incoming req see (Count)
system.dcache_ctrl.wrQLenPdf::25                    0                       # What write queue length does an incoming req see (Count)
system.dcache_ctrl.wrQLenPdf::26                    0                       # What write queue length does an incoming req see (Count)
system.dcache_ctrl.wrQLenPdf::27                    0                       # What write queue length does an incoming req see (Count)
system.dcache_ctrl.wrQLenPdf::28                    0                       # What write queue length does an incoming req see (Count)
system.dcache_ctrl.wrQLenPdf::29                    0                       # What write queue length does an incoming req see (Count)
system.dcache_ctrl.wrQLenPdf::30                    0                       # What write queue length does an incoming req see (Count)
system.dcache_ctrl.wrQLenPdf::31                    0                       # What write queue length does an incoming req see (Count)
system.dcache_ctrl.wrQLenPdf::32                    0                       # What write queue length does an incoming req see (Count)
system.dcache_ctrl.wrQLenPdf::33                    0                       # What write queue length does an incoming req see (Count)
system.dcache_ctrl.wrQLenPdf::34                    0                       # What write queue length does an incoming req see (Count)
system.dcache_ctrl.wrQLenPdf::35                    0                       # What write queue length does an incoming req see (Count)
system.dcache_ctrl.wrQLenPdf::36                    0                       # What write queue length does an incoming req see (Count)
system.dcache_ctrl.wrQLenPdf::37                    0                       # What write queue length does an incoming req see (Count)
system.dcache_ctrl.wrQLenPdf::38                    0                       # What write queue length does an incoming req see (Count)
system.dcache_ctrl.wrQLenPdf::39                    0                       # What write queue length does an incoming req see (Count)
system.dcache_ctrl.wrQLenPdf::40                    0                       # What write queue length does an incoming req see (Count)
system.dcache_ctrl.wrQLenPdf::41                    0                       # What write queue length does an incoming req see (Count)
system.dcache_ctrl.wrQLenPdf::42                    0                       # What write queue length does an incoming req see (Count)
system.dcache_ctrl.wrQLenPdf::43                    0                       # What write queue length does an incoming req see (Count)
system.dcache_ctrl.wrQLenPdf::44                    0                       # What write queue length does an incoming req see (Count)
system.dcache_ctrl.wrQLenPdf::45                    0                       # What write queue length does an incoming req see (Count)
system.dcache_ctrl.wrQLenPdf::46                    0                       # What write queue length does an incoming req see (Count)
system.dcache_ctrl.wrQLenPdf::47                    0                       # What write queue length does an incoming req see (Count)
system.dcache_ctrl.wrQLenPdf::48                    0                       # What write queue length does an incoming req see (Count)
system.dcache_ctrl.wrQLenPdf::49                    0                       # What write queue length does an incoming req see (Count)
system.dcache_ctrl.wrQLenPdf::50                    0                       # What write queue length does an incoming req see (Count)
system.dcache_ctrl.wrQLenPdf::51                    0                       # What write queue length does an incoming req see (Count)
system.dcache_ctrl.wrQLenPdf::52                    0                       # What write queue length does an incoming req see (Count)
system.dcache_ctrl.wrQLenPdf::53                    0                       # What write queue length does an incoming req see (Count)
system.dcache_ctrl.wrQLenPdf::54                    0                       # What write queue length does an incoming req see (Count)
system.dcache_ctrl.wrQLenPdf::55                    0                       # What write queue length does an incoming req see (Count)
system.dcache_ctrl.wrQLenPdf::56                    0                       # What write queue length does an incoming req see (Count)
system.dcache_ctrl.wrQLenPdf::57                    0                       # What write queue length does an incoming req see (Count)
system.dcache_ctrl.wrQLenPdf::58                    0                       # What write queue length does an incoming req see (Count)
system.dcache_ctrl.wrQLenPdf::59                    0                       # What write queue length does an incoming req see (Count)
system.dcache_ctrl.wrQLenPdf::60                    0                       # What write queue length does an incoming req see (Count)
system.dcache_ctrl.wrQLenPdf::61                    0                       # What write queue length does an incoming req see (Count)
system.dcache_ctrl.wrQLenPdf::62                    0                       # What write queue length does an incoming req see (Count)
system.dcache_ctrl.wrQLenPdf::63                    0                       # What write queue length does an incoming req see (Count)
system.dcache_ctrl.bytesReadWrQ                     0                       # Total number of bytes read from write queue (Byte)
system.dcache_ctrl.bytesReadSys                     0                       # Total read bytes from the system interface side (Byte)
system.dcache_ctrl.bytesWrittenSys                  0                       # Total written bytes from the system interface side (Byte)
system.dcache_ctrl.avgRdBWSys              0.00000000                       # Average system read bandwidth in Byte/s ((Byte/Second))
system.dcache_ctrl.avgWrBWSys              0.00000000                       # Average system write bandwidth in Byte/s ((Byte/Second))
system.dcache_ctrl.totGap                  1000325000                       # Total gap between requests (Tick)
system.dcache_ctrl.avgGap                     9314.62                       # Average gap between requests ((Tick/Count))
system.dcache_ctrl.requestorReadAccesses::generator       107393                       # Per-requestor read serviced memory accesses (Count)
system.dcache_ctrl.requestorReadAvgLat::generator         0.00                       # Per-requestor read average memory access latency ((Tick/Count))
system.dcache_ctrl.numWrBacks                  107202                       # Total number of write backs from DRAM cache to main memory (Unspecified)
system.dcache_ctrl.totNumConf                       5                       # Total number of packets conflicted on DRAM cache (Unspecified)
system.dcache_ctrl.totNumConfBufFull                0                       # Total number of packets conflicted yet couldn't enter confBuffer (Unspecified)
system.dcache_ctrl.maxNumConf                       1                       # Maximum number of packets conflicted on DRAM cache (Unspecified)
system.dcache_ctrl.maxLocRdEvQ                    381                       # Maximum number of packets in locMemReadEvent concurrently (Unspecified)
system.dcache_ctrl.maxLocRdRespEvQ                 15                       # Maximum number of packets in locMemReadRespEvent concurrently (Unspecified)
system.dcache_ctrl.maxLocWrEvQ                    327                       # Maximum number of packets in locMemRWriteEvent concurrently (Unspecified)
system.dcache_ctrl.maxFarRdEvQ                    276                       # Maximum number of packets in farMemReadEvent concurrently (Unspecified)
system.dcache_ctrl.maxFarRdRespEvQ                  0                       # Maximum number of packets in farMemReadRespEvent concurrently (Unspecified)
system.dcache_ctrl.maxFarWrEvQ                    301                       # Maximum number of packets in farMemWriteEvent concurrently (Unspecified)
system.dcache_ctrl.rdToWrTurnAround               830                       # Maximum number of packets in farMemReadRespEvent concurrently (Unspecified)
system.dcache_ctrl.wrToRdTurnAround               829                       # Maximum number of packets in farMemWriteEvent concurrently (Unspecified)
system.dcache_ctrl.sentRdPort                  107187                       # Number of read packets successfully sent through the request port to the far memory. (Unspecified)
system.dcache_ctrl.failedRdPort                 95445                       # Number of read packets failed to be sent through the request port to the far memory. (Unspecified)
system.dcache_ctrl.sentWrPort                  107180                       # Number of write packets successfully sent through the request port to the far memory. (Unspecified)
system.dcache_ctrl.failedWrPort                127979                       # Number of write packets failed to be sent through the request port to the far memory. (Unspecified)
system.dcache_ctrl.totPktsServiceTime       514656256                       # Number of write packets failed to be sent through the request port to the far memory. (Unspecified)
system.dcache_ctrl.dram.readBursts             107213                       # Number of DRAM read bursts (Count)
system.dcache_ctrl.dram.writeBursts            106881                       # Number of DRAM write bursts (Count)
system.dcache_ctrl.dram.perBankRdBursts::0         6705                       # Per bank write bursts (Count)
system.dcache_ctrl.dram.perBankRdBursts::1         6721                       # Per bank write bursts (Count)
system.dcache_ctrl.dram.perBankRdBursts::2         6610                       # Per bank write bursts (Count)
system.dcache_ctrl.dram.perBankRdBursts::3         6899                       # Per bank write bursts (Count)
system.dcache_ctrl.dram.perBankRdBursts::4         6669                       # Per bank write bursts (Count)
system.dcache_ctrl.dram.perBankRdBursts::5         6797                       # Per bank write bursts (Count)
system.dcache_ctrl.dram.perBankRdBursts::6         6605                       # Per bank write bursts (Count)
system.dcache_ctrl.dram.perBankRdBursts::7         6838                       # Per bank write bursts (Count)
system.dcache_ctrl.dram.perBankRdBursts::8         6669                       # Per bank write bursts (Count)
system.dcache_ctrl.dram.perBankRdBursts::9         6717                       # Per bank write bursts (Count)
system.dcache_ctrl.dram.perBankRdBursts::10         6732                       # Per bank write bursts (Count)
system.dcache_ctrl.dram.perBankRdBursts::11         6632                       # Per bank write bursts (Count)
system.dcache_ctrl.dram.perBankRdBursts::12         6627                       # Per bank write bursts (Count)
system.dcache_ctrl.dram.perBankRdBursts::13         6650                       # Per bank write bursts (Count)
system.dcache_ctrl.dram.perBankRdBursts::14         6604                       # Per bank write bursts (Count)
system.dcache_ctrl.dram.perBankRdBursts::15         6738                       # Per bank write bursts (Count)
system.dcache_ctrl.dram.perBankWrBursts::0         6688                       # Per bank write bursts (Count)
system.dcache_ctrl.dram.perBankWrBursts::1         6698                       # Per bank write bursts (Count)
system.dcache_ctrl.dram.perBankWrBursts::2         6584                       # Per bank write bursts (Count)
system.dcache_ctrl.dram.perBankWrBursts::3         6876                       # Per bank write bursts (Count)
system.dcache_ctrl.dram.perBankWrBursts::4         6648                       # Per bank write bursts (Count)
system.dcache_ctrl.dram.perBankWrBursts::5         6778                       # Per bank write bursts (Count)
system.dcache_ctrl.dram.perBankWrBursts::6         6584                       # Per bank write bursts (Count)
system.dcache_ctrl.dram.perBankWrBursts::7         6814                       # Per bank write bursts (Count)
system.dcache_ctrl.dram.perBankWrBursts::8         6651                       # Per bank write bursts (Count)
system.dcache_ctrl.dram.perBankWrBursts::9         6703                       # Per bank write bursts (Count)
system.dcache_ctrl.dram.perBankWrBursts::10         6721                       # Per bank write bursts (Count)
system.dcache_ctrl.dram.perBankWrBursts::11         6613                       # Per bank write bursts (Count)
system.dcache_ctrl.dram.perBankWrBursts::12         6599                       # Per bank write bursts (Count)
system.dcache_ctrl.dram.perBankWrBursts::13         6632                       # Per bank write bursts (Count)
system.dcache_ctrl.dram.perBankWrBursts::14         6578                       # Per bank write bursts (Count)
system.dcache_ctrl.dram.perBankWrBursts::15         6714                       # Per bank write bursts (Count)
system.dcache_ctrl.dram.totQLat          245720497000                       # Total ticks spent queuing (Tick)
system.dcache_ctrl.dram.totBusLat           214426000                       # Total ticks spent in databus transfers (Tick)
system.dcache_ctrl.dram.totMemAccLat     247864757000                       # Total ticks spent from burst creation until serviced by the DRAM (Tick)
system.dcache_ctrl.dram.avgQLat            2291890.88                       # Average queueing delay per DRAM burst ((Tick/Count))
system.dcache_ctrl.dram.avgBusLat             2000.00                       # Average bus latency per DRAM burst ((Tick/Count))
system.dcache_ctrl.dram.avgMemAccLat       2311890.88                       # Average memory access latency per DRAM burst ((Tick/Count))
system.dcache_ctrl.dram.readRowHits                 0                       # Number of row buffer hits during reads (Count)
system.dcache_ctrl.dram.writeRowHits                0                       # Number of row buffer hits during writes (Count)
system.dcache_ctrl.dram.readRowHitRate           0.00                       # Row buffer hit rate for reads (Ratio)
system.dcache_ctrl.dram.writeRowHitRate          0.00                       # Row buffer hit rate for writes (Ratio)
system.dcache_ctrl.dram.bytesPerActivate::samples       214094                       # Bytes accessed per row activation (Byte)
system.dcache_ctrl.dram.bytesPerActivate::mean           32                       # Bytes accessed per row activation (Byte)
system.dcache_ctrl.dram.bytesPerActivate::gmean    32.000000                       # Bytes accessed per row activation (Byte)
system.dcache_ctrl.dram.bytesPerActivate::32-35       214094    100.00%    100.00% # Bytes accessed per row activation (Byte)
system.dcache_ctrl.dram.bytesPerActivate::total       214094                       # Bytes accessed per row activation (Byte)
system.dcache_ctrl.dram.bytesRead             3430816                       # Total bytes read (Byte)
system.dcache_ctrl.dram.bytesWritten          3420192                       # Total bytes written (Byte)
system.dcache_ctrl.dram.avgRdBW           3429.697918                       # Average DRAM read bandwidth in MiBytes/s ((Byte/Second))
system.dcache_ctrl.dram.avgWrBW           3419.077381                       # Average DRAM write bandwidth in MiBytes/s ((Byte/Second))
system.dcache_ctrl.dram.peakBW               16000.00                       # Theoretical peak bandwidth in MiByte/s ((Byte/Second))
system.dcache_ctrl.dram.busUtil                 42.80                       # Data bus utilization in percentage (Ratio)
system.dcache_ctrl.dram.busUtilRead             21.44                       # Data bus utilization in percentage for reads (Ratio)
system.dcache_ctrl.dram.busUtilWrite            21.37                       # Data bus utilization in percentage for writes (Ratio)
system.dcache_ctrl.dram.pageHitRate              0.00                       # Row buffer hit rate, read and write combined (Ratio)
system.dcache_ctrl.dram.power_state.pwrStateResidencyTicks::UNDEFINED   1000326000                       # Cumulative time (in ticks) in various power states (Tick)
system.dcache_ctrl.dram.rank0.actEnergy             0                       # Energy for activate commands per rank (pJ) (Joule)
system.dcache_ctrl.dram.rank0.preEnergy             0                       # Energy for precharge commands per rank (pJ) (Joule)
system.dcache_ctrl.dram.rank0.readEnergy            0                       # Energy for read commands per rank (pJ) (Joule)
system.dcache_ctrl.dram.rank0.writeEnergy            0                       # Energy for write commands per rank (pJ) (Joule)
system.dcache_ctrl.dram.rank0.refreshEnergy            0                       # Energy for refresh commands per rank (pJ) (Joule)
system.dcache_ctrl.dram.rank0.actBackEnergy            0                       # Energy for active background per rank (pJ) (Joule)
system.dcache_ctrl.dram.rank0.preBackEnergy            0                       # Energy for precharge background per rank (pJ) (Joule)
system.dcache_ctrl.dram.rank0.actPowerDownEnergy            0                       # Energy for active power-down per rank (pJ) (Joule)
system.dcache_ctrl.dram.rank0.prePowerDownEnergy            0                       # Energy for precharge power-down per rank (pJ) (Joule)
system.dcache_ctrl.dram.rank0.selfRefreshEnergy            0                       # Energy for self refresh per rank (pJ) (Joule)
system.dcache_ctrl.dram.rank0.totalEnergy            0                       # Total energy per rank (pJ) (Joule)
system.dcache_ctrl.dram.rank0.averagePower            0                       # Core power per rank (mW) (Watt)
system.dcache_ctrl.dram.rank0.totalIdleTime            0                       # Total Idle time Per DRAM Rank (Tick)
system.dcache_ctrl.dram.rank0.pwrStateTime::IDLE     66765750                       # Time in different power states (Tick)
system.dcache_ctrl.dram.rank0.pwrStateTime::REF     56540000                       # Time in different power states (Tick)
system.dcache_ctrl.dram.rank0.pwrStateTime::SREF            0                       # Time in different power states (Tick)
system.dcache_ctrl.dram.rank0.pwrStateTime::PRE_PDN            0                       # Time in different power states (Tick)
system.dcache_ctrl.dram.rank0.pwrStateTime::ACT    877020250                       # Time in different power states (Tick)
system.dcache_ctrl.dram.rank0.pwrStateTime::ACT_PDN            0                       # Time in different power states (Tick)
system.dcache_ctrl.far_memory.bytesRead::generator     13713664                       # Number of bytes read from this memory (Byte)
system.dcache_ctrl.far_memory.bytesRead::total     13713664                       # Number of bytes read from this memory (Byte)
system.dcache_ctrl.far_memory.bytesWritten::writebacks      6859520                       # Number of bytes written to this memory (Byte)
system.dcache_ctrl.far_memory.bytesWritten::total      6859520                       # Number of bytes written to this memory (Byte)
system.dcache_ctrl.far_memory.numReads::generator       214276                       # Number of read requests responded to by this memory (Count)
system.dcache_ctrl.far_memory.numReads::total       214276                       # Number of read requests responded to by this memory (Count)
system.dcache_ctrl.far_memory.numWrites::writebacks       107180                       # Number of write requests responded to by this memory (Count)
system.dcache_ctrl.far_memory.numWrites::total       107180                       # Number of write requests responded to by this memory (Count)
system.dcache_ctrl.far_memory.bwRead::generator  13709194802                       # Total read bandwidth from this memory ((Byte/Second))
system.dcache_ctrl.far_memory.bwRead::total  13709194802                       # Total read bandwidth from this memory ((Byte/Second))
system.dcache_ctrl.far_memory.bwWrite::writebacks   6857284525                       # Write bandwidth from this memory ((Byte/Second))
system.dcache_ctrl.far_memory.bwWrite::total   6857284525                       # Write bandwidth from this memory ((Byte/Second))
system.dcache_ctrl.far_memory.bwTotal::writebacks   6857284525                       # Total bandwidth to/from this memory ((Byte/Second))
system.dcache_ctrl.far_memory.bwTotal::generator  13709194802                       # Total bandwidth to/from this memory ((Byte/Second))
system.dcache_ctrl.far_memory.bwTotal::total  20566479328                       # Total bandwidth to/from this memory ((Byte/Second))
system.dcache_ctrl.far_memory.readBursts       106996                       # Number of DRAM read bursts (Count)
system.dcache_ctrl.far_memory.writeBursts       107052                       # Number of DRAM write bursts (Count)
system.dcache_ctrl.far_memory.perBankRdBursts::0         3363                       # Per bank write bursts (Count)
system.dcache_ctrl.far_memory.perBankRdBursts::1         3398                       # Per bank write bursts (Count)
system.dcache_ctrl.far_memory.perBankRdBursts::2         3464                       # Per bank write bursts (Count)
system.dcache_ctrl.far_memory.perBankRdBursts::3         3266                       # Per bank write bursts (Count)
system.dcache_ctrl.far_memory.perBankRdBursts::4         3414                       # Per bank write bursts (Count)
system.dcache_ctrl.far_memory.perBankRdBursts::5         3343                       # Per bank write bursts (Count)
system.dcache_ctrl.far_memory.perBankRdBursts::6         3351                       # Per bank write bursts (Count)
system.dcache_ctrl.far_memory.perBankRdBursts::7         3334                       # Per bank write bursts (Count)
system.dcache_ctrl.far_memory.perBankRdBursts::8         3239                       # Per bank write bursts (Count)
system.dcache_ctrl.far_memory.perBankRdBursts::9         3349                       # Per bank write bursts (Count)
system.dcache_ctrl.far_memory.perBankRdBursts::10         3394                       # Per bank write bursts (Count)
system.dcache_ctrl.far_memory.perBankRdBursts::11         3346                       # Per bank write bursts (Count)
system.dcache_ctrl.far_memory.perBankRdBursts::12         3424                       # Per bank write bursts (Count)
system.dcache_ctrl.far_memory.perBankRdBursts::13         3372                       # Per bank write bursts (Count)
system.dcache_ctrl.far_memory.perBankRdBursts::14         3292                       # Per bank write bursts (Count)
system.dcache_ctrl.far_memory.perBankRdBursts::15         3374                       # Per bank write bursts (Count)
system.dcache_ctrl.far_memory.perBankRdBursts::16         3414                       # Per bank write bursts (Count)
system.dcache_ctrl.far_memory.perBankRdBursts::17         3353                       # Per bank write bursts (Count)
system.dcache_ctrl.far_memory.perBankRdBursts::18         3317                       # Per bank write bursts (Count)
system.dcache_ctrl.far_memory.perBankRdBursts::19         3345                       # Per bank write bursts (Count)
system.dcache_ctrl.far_memory.perBankRdBursts::20         3377                       # Per bank write bursts (Count)
system.dcache_ctrl.far_memory.perBankRdBursts::21         3282                       # Per bank write bursts (Count)
system.dcache_ctrl.far_memory.perBankRdBursts::22         3334                       # Per bank write bursts (Count)
system.dcache_ctrl.far_memory.perBankRdBursts::23         3377                       # Per bank write bursts (Count)
system.dcache_ctrl.far_memory.perBankRdBursts::24         3370                       # Per bank write bursts (Count)
system.dcache_ctrl.far_memory.perBankRdBursts::25         3301                       # Per bank write bursts (Count)
system.dcache_ctrl.far_memory.perBankRdBursts::26         3325                       # Per bank write bursts (Count)
system.dcache_ctrl.far_memory.perBankRdBursts::27         3289                       # Per bank write bursts (Count)
system.dcache_ctrl.far_memory.perBankRdBursts::28         3314                       # Per bank write bursts (Count)
system.dcache_ctrl.far_memory.perBankRdBursts::29         3333                       # Per bank write bursts (Count)
system.dcache_ctrl.far_memory.perBankRdBursts::30         3334                       # Per bank write bursts (Count)
system.dcache_ctrl.far_memory.perBankRdBursts::31         3208                       # Per bank write bursts (Count)
system.dcache_ctrl.far_memory.perBankWrBursts::0         3366                       # Per bank write bursts (Count)
system.dcache_ctrl.far_memory.perBankWrBursts::1         3404                       # Per bank write bursts (Count)
system.dcache_ctrl.far_memory.perBankWrBursts::2         3463                       # Per bank write bursts (Count)
system.dcache_ctrl.far_memory.perBankWrBursts::3         3272                       # Per bank write bursts (Count)
system.dcache_ctrl.far_memory.perBankWrBursts::4         3415                       # Per bank write bursts (Count)
system.dcache_ctrl.far_memory.perBankWrBursts::5         3348                       # Per bank write bursts (Count)
system.dcache_ctrl.far_memory.perBankWrBursts::6         3352                       # Per bank write bursts (Count)
system.dcache_ctrl.far_memory.perBankWrBursts::7         3336                       # Per bank write bursts (Count)
system.dcache_ctrl.far_memory.perBankWrBursts::8         3244                       # Per bank write bursts (Count)
system.dcache_ctrl.far_memory.perBankWrBursts::9         3351                       # Per bank write bursts (Count)
system.dcache_ctrl.far_memory.perBankWrBursts::10         3397                       # Per bank write bursts (Count)
system.dcache_ctrl.far_memory.perBankWrBursts::11         3351                       # Per bank write bursts (Count)
system.dcache_ctrl.far_memory.perBankWrBursts::12         3426                       # Per bank write bursts (Count)
system.dcache_ctrl.far_memory.perBankWrBursts::13         3371                       # Per bank write bursts (Count)
system.dcache_ctrl.far_memory.perBankWrBursts::14         3294                       # Per bank write bursts (Count)
system.dcache_ctrl.far_memory.perBankWrBursts::15         3372                       # Per bank write bursts (Count)
system.dcache_ctrl.far_memory.perBankWrBursts::16         3419                       # Per bank write bursts (Count)
system.dcache_ctrl.far_memory.perBankWrBursts::17         3352                       # Per bank write bursts (Count)
system.dcache_ctrl.far_memory.perBankWrBursts::18         3321                       # Per bank write bursts (Count)
system.dcache_ctrl.far_memory.perBankWrBursts::19         3345                       # Per bank write bursts (Count)
system.dcache_ctrl.far_memory.perBankWrBursts::20         3379                       # Per bank write bursts (Count)
system.dcache_ctrl.far_memory.perBankWrBursts::21         3283                       # Per bank write bursts (Count)
system.dcache_ctrl.far_memory.perBankWrBursts::22         3333                       # Per bank write bursts (Count)
system.dcache_ctrl.far_memory.perBankWrBursts::23         3379                       # Per bank write bursts (Count)
system.dcache_ctrl.far_memory.perBankWrBursts::24         3367                       # Per bank write bursts (Count)
system.dcache_ctrl.far_memory.perBankWrBursts::25         3304                       # Per bank write bursts (Count)
system.dcache_ctrl.far_memory.perBankWrBursts::26         3330                       # Per bank write bursts (Count)
system.dcache_ctrl.far_memory.perBankWrBursts::27         3291                       # Per bank write bursts (Count)
system.dcache_ctrl.far_memory.perBankWrBursts::28         3316                       # Per bank write bursts (Count)
system.dcache_ctrl.far_memory.perBankWrBursts::29         3329                       # Per bank write bursts (Count)
system.dcache_ctrl.far_memory.perBankWrBursts::30         3335                       # Per bank write bursts (Count)
system.dcache_ctrl.far_memory.perBankWrBursts::31         3207                       # Per bank write bursts (Count)
system.dcache_ctrl.far_memory.totQLat     25872492696                       # Total ticks spent queuing (Tick)
system.dcache_ctrl.far_memory.totBusLat     356510672                       # Total ticks spent in databus transfers (Tick)
system.dcache_ctrl.far_memory.totMemAccLat  27744066728                       # Total ticks spent from burst creation until serviced by the DRAM (Tick)
system.dcache_ctrl.far_memory.avgQLat       241808.04                       # Average queueing delay per DRAM burst ((Tick/Count))
system.dcache_ctrl.far_memory.avgBusLat       3332.00                       # Average bus latency per DRAM burst ((Tick/Count))
system.dcache_ctrl.far_memory.avgMemAccLat    259300.04                       # Average memory access latency per DRAM burst ((Tick/Count))
system.dcache_ctrl.far_memory.readRowHits           31                       # Number of row buffer hits during reads (Count)
system.dcache_ctrl.far_memory.writeRowHits          150                       # Number of row buffer hits during writes (Count)
system.dcache_ctrl.far_memory.readRowHitRate         0.03                       # Row buffer hit rate for reads (Ratio)
system.dcache_ctrl.far_memory.writeRowHitRate         0.14                       # Row buffer hit rate for writes (Ratio)
system.dcache_ctrl.far_memory.bytesPerActivate::samples       213860                       # Bytes accessed per row activation (Byte)
system.dcache_ctrl.far_memory.bytesPerActivate::mean    64.054166                       # Bytes accessed per row activation (Byte)
system.dcache_ctrl.far_memory.bytesPerActivate::gmean    64.037556                       # Bytes accessed per row activation (Byte)
system.dcache_ctrl.far_memory.bytesPerActivate::stdev     1.861108                       # Bytes accessed per row activation (Byte)
system.dcache_ctrl.far_memory.bytesPerActivate::64-79       213679     99.92%     99.92% # Bytes accessed per row activation (Byte)
system.dcache_ctrl.far_memory.bytesPerActivate::128-143          181      0.08%    100.00% # Bytes accessed per row activation (Byte)
system.dcache_ctrl.far_memory.bytesPerActivate::total       213860                       # Bytes accessed per row activation (Byte)
system.dcache_ctrl.far_memory.bytesRead       6847744                       # Total bytes read (Byte)
system.dcache_ctrl.far_memory.bytesWritten      6851328                       # Total bytes written (Byte)
system.dcache_ctrl.far_memory.avgRdBW     6845.512363                       # Average DRAM read bandwidth in MiBytes/s ((Byte/Second))
system.dcache_ctrl.far_memory.avgWrBW     6849.095195                       # Average DRAM write bandwidth in MiBytes/s ((Byte/Second))
system.dcache_ctrl.far_memory.peakBW         19207.00                       # Theoretical peak bandwidth in MiByte/s ((Byte/Second))
system.dcache_ctrl.far_memory.busUtil           71.30                       # Data bus utilization in percentage (Ratio)
system.dcache_ctrl.far_memory.busUtilRead        35.64                       # Data bus utilization in percentage for reads (Ratio)
system.dcache_ctrl.far_memory.busUtilWrite        35.66                       # Data bus utilization in percentage for writes (Ratio)
system.dcache_ctrl.far_memory.pageHitRate         0.08                       # Row buffer hit rate, read and write combined (Ratio)
system.dcache_ctrl.far_memory.power_state.pwrStateResidencyTicks::UNDEFINED   1000326000                       # Cumulative time (in ticks) in various power states (Tick)
system.dcache_ctrl.far_memory.rank0.actEnergy 334988271.072000                       # Energy for activate commands per rank (pJ) (Joule)
system.dcache_ctrl.far_memory.rank0.preEnergy 445346026.305600                       # Energy for precharge commands per rank (pJ) (Joule)
system.dcache_ctrl.far_memory.rank0.readEnergy 225967544.812800                       # Energy for read commands per rank (pJ) (Joule)
system.dcache_ctrl.far_memory.rank0.writeEnergy 202064261.952000                       # Energy for write commands per rank (pJ) (Joule)
system.dcache_ctrl.far_memory.rank0.refreshEnergy 177328336.281601                       # Energy for refresh commands per rank (pJ) (Joule)
system.dcache_ctrl.far_memory.rank0.actBackEnergy 842914063.454400                       # Energy for active background per rank (pJ) (Joule)
system.dcache_ctrl.far_memory.rank0.preBackEnergy 5350275.033600                       # Energy for precharge background per rank (pJ) (Joule)
system.dcache_ctrl.far_memory.rank0.actPowerDownEnergy            0                       # Energy for active power-down per rank (pJ) (Joule)
system.dcache_ctrl.far_memory.rank0.prePowerDownEnergy            0                       # Energy for precharge power-down per rank (pJ) (Joule)
system.dcache_ctrl.far_memory.rank0.selfRefreshEnergy            0                       # Energy for self refresh per rank (pJ) (Joule)
system.dcache_ctrl.far_memory.rank0.totalEnergy 2233958778.911999                       # Total energy per rank (pJ) (Joule)
system.dcache_ctrl.far_memory.rank0.averagePower  2233.230746                       # Core power per rank (mW) (Watt)
system.dcache_ctrl.far_memory.rank0.totalIdleTime            0                       # Total Idle time Per DRAM Rank (Tick)
system.dcache_ctrl.far_memory.rank0.pwrStateTime::IDLE      3785180                       # Time in different power states (Tick)
system.dcache_ctrl.far_memory.rank0.pwrStateTime::REF     44800000                       # Time in different power states (Tick)
system.dcache_ctrl.far_memory.rank0.pwrStateTime::SREF            0                       # Time in different power states (Tick)
system.dcache_ctrl.far_memory.rank0.pwrStateTime::PRE_PDN            0                       # Time in different power states (Tick)
system.dcache_ctrl.far_memory.rank0.pwrStateTime::ACT    951740820                       # Time in different power states (Tick)
system.dcache_ctrl.far_memory.rank0.pwrStateTime::ACT_PDN            0                       # Time in different power states (Tick)
system.dcache_ctrl.far_memory.rank1.actEnergy 332003625.408000                       # Energy for activate commands per rank (pJ) (Joule)
system.dcache_ctrl.far_memory.rank1.preEnergy 441353100.115200                       # Energy for precharge commands per rank (pJ) (Joule)
system.dcache_ctrl.far_memory.rank1.readEnergy 224062083.302400                       # Energy for read commands per rank (pJ) (Joule)
system.dcache_ctrl.far_memory.rank1.writeEnergy 200286493.344000                       # Energy for write commands per rank (pJ) (Joule)
system.dcache_ctrl.far_memory.rank1.refreshEnergy 177328336.281601                       # Energy for refresh commands per rank (pJ) (Joule)
system.dcache_ctrl.far_memory.rank1.actBackEnergy 842698917.547200                       # Energy for active background per rank (pJ) (Joule)
system.dcache_ctrl.far_memory.rank1.preBackEnergy 5515584.883200                       # Energy for precharge background per rank (pJ) (Joule)
system.dcache_ctrl.far_memory.rank1.actPowerDownEnergy            0                       # Energy for active power-down per rank (pJ) (Joule)
system.dcache_ctrl.far_memory.rank1.prePowerDownEnergy            0                       # Energy for precharge power-down per rank (pJ) (Joule)
system.dcache_ctrl.far_memory.rank1.selfRefreshEnergy            0                       # Energy for self refresh per rank (pJ) (Joule)
system.dcache_ctrl.far_memory.rank1.totalEnergy 2223248140.881599                       # Total energy per rank (pJ) (Joule)
system.dcache_ctrl.far_memory.rank1.averagePower  2222.523598                       # Core power per rank (mW) (Watt)
system.dcache_ctrl.far_memory.rank1.totalIdleTime            0                       # Total Idle time Per DRAM Rank (Tick)
system.dcache_ctrl.far_memory.rank1.pwrStateTime::IDLE      4123402                       # Time in different power states (Tick)
system.dcache_ctrl.far_memory.rank1.pwrStateTime::REF     44800000                       # Time in different power states (Tick)
system.dcache_ctrl.far_memory.rank1.pwrStateTime::SREF            0                       # Time in different power states (Tick)
system.dcache_ctrl.far_memory.rank1.pwrStateTime::PRE_PDN            0                       # Time in different power states (Tick)
system.dcache_ctrl.far_memory.rank1.pwrStateTime::ACT    951402598                       # Time in different power states (Tick)
system.dcache_ctrl.far_memory.rank1.pwrStateTime::ACT_PDN            0                       # Time in different power states (Tick)
system.dcache_ctrl.power_state.pwrStateResidencyTicks::UNDEFINED   1000326000                       # Cumulative time (in ticks) in various power states (Tick)
system.farMem_ctrl.avgPriority_writebacks::samples    107180.00                       # Average QoS priority value for accepted requests (Count)
system.farMem_ctrl.avgPriority_generator::samples    107030.00                       # Average QoS priority value for accepted requests (Count)
system.farMem_ctrl.priorityMinLatency    0.000000031652                       # per QoS priority minimum request to response latency (Second)
system.farMem_ctrl.priorityMaxLatency    0.000012421034                       # per QoS priority maximum request to response latency (Second)
system.farMem_ctrl.numReadWriteTurnArounds         5614                       # Number of turnarounds from READ to WRITE (Count)
system.farMem_ctrl.numWriteReadTurnArounds         5615                       # Number of turnarounds from WRITE to READ (Count)
system.farMem_ctrl.numStayReadState            106258                       # Number of times bus staying in READ state (Count)
system.farMem_ctrl.numStayWriteState           104665                       # Number of times bus staying in WRITE state (Count)
system.farMem_ctrl.readReqs                    107187                       # Number of read requests accepted (Count)
system.farMem_ctrl.writeReqs                   107180                       # Number of write requests accepted (Count)
system.farMem_ctrl.readBursts                  107187                       # Number of controller read bursts, including those serviced by the write queue (Count)
system.farMem_ctrl.writeBursts                 107180                       # Number of controller write bursts, including those merged in the write queue (Count)
system.farMem_ctrl.servicedByWrQ                  157                       # Number of controller read bursts serviced by the write queue (Count)
system.farMem_ctrl.mergedWrBursts                   0                       # Number of controller write bursts merged with an existing one (Count)
system.farMem_ctrl.neitherReadNorWriteReqs            0                       # Number of requests that are neither read nor write (Count)
system.farMem_ctrl.avgRdQLen                    46.02                       # Average read queue length when enqueuing ((Count/Tick))
system.farMem_ctrl.avgWrQLen                   122.58                       # Average write queue length when enqueuing ((Count/Tick))
system.farMem_ctrl.numRdRetry                   20614                       # Number of times read queue was full causing retry (Count)
system.farMem_ctrl.numWrRetry                   38271                       # Number of times write queue was full causing retry (Count)
system.farMem_ctrl.readPktSize::0                   0                       # Read request sizes (log2) (Count)
system.farMem_ctrl.readPktSize::1                   0                       # Read request sizes (log2) (Count)
system.farMem_ctrl.readPktSize::2                   0                       # Read request sizes (log2) (Count)
system.farMem_ctrl.readPktSize::3                   0                       # Read request sizes (log2) (Count)
system.farMem_ctrl.readPktSize::4                   0                       # Read request sizes (log2) (Count)
system.farMem_ctrl.readPktSize::5                   0                       # Read request sizes (log2) (Count)
[...]
system.farMem_ctrl.rdPerTurnAround::72-75            4      0.07%     98.15% # Reads before turning the bus around for writes (Count)
system.farMem_ctrl.rdPerTurnAround::76-79            2      0.04%     98.18% # Reads before turning the bus around for writes (Count)
system.farMem_ctrl.rdPerTurnAround::80-83            6      0.11%     98.29% # Reads before turning the bus around for writes (Count)
system.farMem_ctrl.rdPerTurnAround::84-87            6      0.11%     98.40% # Reads before turning the bus around for writes (Count)
system.farMem_ctrl.rdPerTurnAround::88-91            8      0.14%     98.54% # Reads before turning the bus around for writes (Count)
system.farMem_ctrl.rdPerTurnAround::92-95            6      0.11%     98.65% # Reads before turning the bus around for writes (Count)
system.farMem_ctrl.rdPerTurnAround::96-99            1      0.02%     98.66% # Reads before turning the bus around for writes (Count)
system.farMem_ctrl.rdPerTurnAround::100-103           12      0.21%     98.88% # Reads before turning the bus around for writes (Count)
system.farMem_ctrl.rdPerTurnAround::104-107            5      0.09%     98.97% # Reads before turning the bus around for writes (Count)
system.farMem_ctrl.rdPerTurnAround::108-111            8      0.14%     99.11% # Reads before turning the bus around for writes (Count)
system.farMem_ctrl.rdPerTurnAround::112-115            4      0.07%     99.18% # Reads before turning the bus around for writes (Count)
system.farMem_ctrl.rdPerTurnAround::116-119            3      0.05%     99.23% # Reads before turning the bus around for writes (Count)
system.farMem_ctrl.rdPerTurnAround::120-123            2      0.04%     99.27% # Reads before turning the bus around for writes (Count)
system.farMem_ctrl.rdPerTurnAround::124-127            7      0.12%     99.39% # Reads before turning the bus around for writes (Count)
system.farMem_ctrl.rdPerTurnAround::128-131            5      0.09%     99.48% # Reads before turning the bus around for writes (Count)
system.farMem_ctrl.rdPerTurnAround::132-135            5      0.09%     99.57% # Reads before turning the bus around for writes (Count)
system.farMem_ctrl.rdPerTurnAround::136-139            4      0.07%     99.64% # Reads before turning the bus around for writes (Count)
system.farMem_ctrl.rdPerTurnAround::140-143            5      0.09%     99.73% # Reads before turning the bus around for writes (Count)
system.farMem_ctrl.rdPerTurnAround::144-147            3      0.05%     99.79% # Reads before turning the bus around for writes (Count)
system.farMem_ctrl.rdPerTurnAround::148-151            5      0.09%     99.88% # Reads before turning the bus around for writes (Count)
system.farMem_ctrl.rdPerTurnAround::152-155            2      0.04%     99.91% # Reads before turning the bus around for writes (Count)
system.farMem_ctrl.rdPerTurnAround::156-159            1      0.02%     99.93% # Reads before turning the bus around for writes (Count)
system.farMem_ctrl.rdPerTurnAround::160-163            3      0.05%     99.98% # Reads before turning the bus around for writes (Count)
system.farMem_ctrl.rdPerTurnAround::164-167            1      0.02%    100.00% # Reads before turning the bus around for writes (Count)
system.farMem_ctrl.rdPerTurnAround::total         5615                       # Reads before turning the bus around for writes (Count)
system.farMem_ctrl.wrPerTurnAround::samples         5614                       # Writes before turning the bus around for reads (Count)
system.farMem_ctrl.wrPerTurnAround::mean    19.068579                       # Writes before turning the bus around for reads (Count)
system.farMem_ctrl.wrPerTurnAround::gmean    17.522852                       # Writes before turning the bus around for reads (Count)
system.farMem_ctrl.wrPerTurnAround::stdev    12.460725                       # Writes before turning the bus around for reads (Count)
system.farMem_ctrl.wrPerTurnAround::16-17         5155     91.82%     91.82% # Writes before turning the bus around for reads (Count)
system.farMem_ctrl.wrPerTurnAround::18-19            7      0.12%     91.95% # Writes before turning the bus around for reads (Count)
system.farMem_ctrl.wrPerTurnAround::20-21           16      0.29%     92.23% # Writes before turning the bus around for reads (Count)
system.farMem_ctrl.wrPerTurnAround::22-23            9      0.16%     92.39% # Writes before turning the bus around for reads (Count)
system.farMem_ctrl.wrPerTurnAround::24-25           11      0.20%     92.59% # Writes before turning the bus around for reads (Count)
system.farMem_ctrl.wrPerTurnAround::26-27           14      0.25%     92.84% # Writes before turning the bus around for reads (Count)
system.farMem_ctrl.wrPerTurnAround::28-29           12      0.21%     93.05% # Writes before turning the bus around for reads (Count)
system.farMem_ctrl.wrPerTurnAround::30-31           10      0.18%     93.23% # Writes before turning the bus around for reads (Count)
system.farMem_ctrl.wrPerTurnAround::32-33           12      0.21%     93.44% # Writes before turning the bus around for reads (Count)
system.farMem_ctrl.wrPerTurnAround::34-35            9      0.16%     93.61% # Writes before turning the bus around for reads (Count)
system.farMem_ctrl.wrPerTurnAround::36-37            8      0.14%     93.75% # Writes before turning the bus around for reads (Count)
system.farMem_ctrl.wrPerTurnAround::38-39           18      0.32%     94.07% # Writes before turning the bus around for reads (Count)
system.farMem_ctrl.wrPerTurnAround::40-41           14      0.25%     94.32% # Writes before turning the bus around for reads (Count)
system.farMem_ctrl.wrPerTurnAround::42-43           20      0.36%     94.67% # Writes before turning the bus around for reads (Count)
system.farMem_ctrl.wrPerTurnAround::44-45           19      0.34%     95.01% # Writes before turning the bus around for reads (Count)
system.farMem_ctrl.wrPerTurnAround::46-47           28      0.50%     95.51% # Writes before turning the bus around for reads (Count)
system.farMem_ctrl.wrPerTurnAround::48-49           18      0.32%     95.83% # Writes before turning the bus around for reads (Count)
system.farMem_ctrl.wrPerTurnAround::50-51           21      0.37%     96.21% # Writes before turning the bus around for reads (Count)
system.farMem_ctrl.wrPerTurnAround::52-53           26      0.46%     96.67% # Writes before turning the bus around for reads (Count)
system.farMem_ctrl.wrPerTurnAround::54-55           21      0.37%     97.04% # Writes before turning the bus around for reads (Count)
system.farMem_ctrl.wrPerTurnAround::56-57           23      0.41%     97.45% # Writes before turning the bus around for reads (Count)
system.farMem_ctrl.wrPerTurnAround::58-59           15      0.27%     97.72% # Writes before turning the bus around for reads (Count)
system.farMem_ctrl.wrPerTurnAround::60-61           18      0.32%     98.04% # Writes before turning the bus around for reads (Count)
system.farMem_ctrl.wrPerTurnAround::62-63            7      0.12%     98.17% # Writes before turning the bus around for reads (Count)
system.farMem_ctrl.wrPerTurnAround::64-65            4      0.07%     98.24% # Writes before turning the bus around for reads (Count)
system.farMem_ctrl.wrPerTurnAround::66-67            7      0.12%     98.36% # Writes before turning the bus around for reads (Count)
system.farMem_ctrl.wrPerTurnAround::68-69            8      0.14%     98.50% # Writes before turning the bus around for reads (Count)
system.farMem_ctrl.wrPerTurnAround::70-71            6      0.11%     98.61% # Writes before turning the bus around for reads (Count)
system.farMem_ctrl.wrPerTurnAround::72-73            4      0.07%     98.68% # Writes before turning the bus around for reads (Count)
system.farMem_ctrl.wrPerTurnAround::74-75            7      0.12%     98.81% # Writes before turning the bus around for reads (Count)
system.farMem_ctrl.wrPerTurnAround::76-77            5      0.09%     98.90% # Writes before turning the bus around for reads (Count)
system.farMem_ctrl.wrPerTurnAround::78-79            4      0.07%     98.97% # Writes before turning the bus around for reads (Count)
system.farMem_ctrl.wrPerTurnAround::80-81            3      0.05%     99.02% # Writes before turning the bus around for reads (Count)
system.farMem_ctrl.wrPerTurnAround::82-83            6      0.11%     99.13% # Writes before turning the bus around for reads (Count)
system.farMem_ctrl.wrPerTurnAround::84-85            5      0.09%     99.22% # Writes before turning the bus around for reads (Count)
system.farMem_ctrl.wrPerTurnAround::86-87            2      0.04%     99.25% # Writes before turning the bus around for reads (Count)
system.farMem_ctrl.wrPerTurnAround::88-89            1      0.02%     99.27% # Writes before turning the bus around for reads (Count)
system.farMem_ctrl.wrPerTurnAround::90-91            3      0.05%     99.32% # Writes before turning the bus around for reads (Count)
system.farMem_ctrl.wrPerTurnAround::94-95            1      0.02%     99.34% # Writes before turning the bus around for reads (Count)
system.farMem_ctrl.wrPerTurnAround::96-97            2      0.04%     99.38% # Writes before turning the bus around for reads (Count)
system.farMem_ctrl.wrPerTurnAround::98-99            5      0.09%     99.47% # Writes before turning the bus around for reads (Count)
system.farMem_ctrl.wrPerTurnAround::100-101            4      0.07%     99.54% # Writes before turning the bus around for reads (Count)
system.farMem_ctrl.wrPerTurnAround::102-103            3      0.05%     99.59% # Writes before turning the bus around for reads (Count)
system.farMem_ctrl.wrPerTurnAround::104-105            4      0.07%     99.66% # Writes before turning the bus around for reads (Count)
system.farMem_ctrl.wrPerTurnAround::106-107            1      0.02%     99.68% # Writes before turning the bus around for reads (Count)
system.farMem_ctrl.wrPerTurnAround::108-109            3      0.05%     99.73% # Writes before turning the bus around for reads (Count)
system.farMem_ctrl.wrPerTurnAround::112-113            1      0.02%     99.75% # Writes before turning the bus around for reads (Count)
system.farMem_ctrl.wrPerTurnAround::116-117            1      0.02%     99.77% # Writes before turning the bus around for reads (Count)
system.farMem_ctrl.wrPerTurnAround::118-119            2      0.04%     99.80% # Writes before turning the bus around for reads (Count)
system.farMem_ctrl.wrPerTurnAround::120-121            1      0.02%     99.82% # Writes before turning the bus around for reads (Count)
system.farMem_ctrl.wrPerTurnAround::128-129            3      0.05%     99.88% # Writes before turning the bus around for reads (Count)
system.farMem_ctrl.wrPerTurnAround::134-135            1      0.02%     99.89% # Writes before turning the bus around for reads (Count)
system.farMem_ctrl.wrPerTurnAround::136-137            1      0.02%     99.91% # Writes before turning the bus around for reads (Count)
system.farMem_ctrl.wrPerTurnAround::138-139            1      0.02%     99.93% # Writes before turning the bus around for reads (Count)
system.farMem_ctrl.wrPerTurnAround::140-141            2      0.04%     99.96% # Writes before turning the bus around for reads (Count)
system.farMem_ctrl.wrPerTurnAround::144-145            1      0.02%     99.98% # Writes before turning the bus around for reads (Count)
system.farMem_ctrl.wrPerTurnAround::180-181            1      0.02%    100.00% # Writes before turning the bus around for reads (Count)
system.farMem_ctrl.wrPerTurnAround::total         5614                       # Writes before turning the bus around for reads (Count)
system.farMem_ctrl.bytesReadWrQ                 10048                       # Total number of bytes read from write queue (Byte)
system.farMem_ctrl.bytesReadSys               6859968                       # Total read bytes from the system interface side (Byte)
system.farMem_ctrl.bytesWrittenSys            6859520                       # Total written bytes from the system interface side (Byte)
system.farMem_ctrl.avgRdBWSys            6857732379.24436665                       # Average system read bandwidth in Byte/s ((Byte/Second))
system.farMem_ctrl.avgWrBWSys            6857284525.24477100                       # Average system write bandwidth in Byte/s ((Byte/Second))
system.farMem_ctrl.totGap                  1000279250                       # Total gap between requests (Tick)
system.farMem_ctrl.avgGap                     4666.20                       # Average gap between requests ((Tick/Count))
system.farMem_ctrl.requestorReadBytes::generator      6847744                       # Per-requestor bytes read from memory (Byte)
system.farMem_ctrl.requestorWriteBytes::writebacks      6851328                       # Per-requestor bytes write to memory (Byte)
system.farMem_ctrl.requestorReadRate::generator 6845512362.969672203064                       # Per-requestor bytes read from memory rate ((Byte/Second))
system.farMem_ctrl.requestorWriteRate::writebacks 6849095194.966441154480                       # Per-requestor bytes write to memory rate ((Byte/Second))
system.farMem_ctrl.requestorReadAccesses::generator       107187                       # Per-requestor read serviced memory accesses (Count)
system.farMem_ctrl.requestorWriteAccesses::writebacks       107180                       # Per-requestor write serviced memory accesses (Count)
system.farMem_ctrl.requestorReadTotalLat::generator  27744066728                       # Per-requestor read total memory access latency (Tick)
system.farMem_ctrl.requestorWriteTotalLat::writebacks 113992588808                       # Per-requestor write total memory access latency (Tick)
system.farMem_ctrl.requestorReadAvgLat::generator    258837.98                       # Per-requestor read average memory access latency ((Tick/Count))
system.farMem_ctrl.requestorWriteAvgLat::writebacks   1063562.13                       # Per-requestor write average memory access latency ((Tick/Count))
system.farMem_ctrl.power_state.pwrStateResidencyTicks::UNDEFINED   1000326000                       # Cumulative time (in ticks) in various power states (Tick)
system.generator.numSuppressed                      0                       # Number of suppressed packets to non-memory space (Count)
system.generator.numPackets                    107393                       # Number of packets generated (Count)
system.generator.numRetries                    105563                       # Number of retries (Count)
system.generator.retryTicks                 998348000                       # Time spent waiting due to back-pressure (Tick)
system.generator.bytesRead                    6856320                       # Number of bytes read (Byte)
system.generator.bytesWritten                       0                       # Number of bytes written (Byte)
system.generator.totalReadLatency        291131316250                       # Total latency of read requests (Tick)
system.generator.totalWriteLatency                  0                       # Total latency of write requests (Tick)
system.generator.totalReads                    107130                       # Total num of reads (Count)
system.generator.totalWrites                        0                       # Total num of writes (Count)
system.generator.avgReadLatency          2717551.724540                       # Avg latency of read requests ((Tick/Count))
system.generator.avgWriteLatency                  nan                       # Avg latency of write requests ((Tick/Count))
system.generator.readBW                  6854085568.104798                       # Read bandwidth ((Byte/Second))
system.generator.writeBW                            0                       # Write bandwidth ((Byte/Second))
system.generator.power_state.pwrStateResidencyTicks::UNDEFINED   1000326000                       # Cumulative time (in ticks) in various power states (Tick)
system.membus.transDist::ReadReq               107187                       # Transaction distribution (Count)
system.membus.transDist::ReadResp              107137                       # Transaction distribution (Count)
system.membus.transDist::WriteReq              107180                       # Transaction distribution (Count)
system.membus.transDist::WriteResp             107179                       # Transaction distribution (Count)
system.membus.pktCount_system.dcache_ctrl.req_port::system.farMem_ctrl.port       428683                       # Packet count per connected requestor and responder (Count)
system.membus.pktSize_system.dcache_ctrl.req_port::system.farMem_ctrl.port     13716288                       # Cumulative packet size per connected requestor and responder (Byte)
system.membus.snoops                                0                       # Total snoops (Count)
system.membus.snoopTraffic                          0                       # Total snoop traffic (Byte)
system.membus.snoopFanout::samples             273252                       # Request fanout histogram (Count)
system.membus.snoopFanout::mean                     0                       # Request fanout histogram (Count)
system.membus.snoopFanout::stdev                    0                       # Request fanout histogram (Count)
system.membus.snoopFanout::underflows               0      0.00%      0.00% # Request fanout histogram (Count)
system.membus.snoopFanout::0                   273252    100.00%    100.00% # Request fanout histogram (Count)
system.membus.snoopFanout::overflows                0      0.00%    100.00% # Request fanout histogram (Count)
system.membus.snoopFanout::min_value                0                       # Request fanout histogram (Count)
system.membus.snoopFanout::max_value                0                       # Request fanout histogram (Count)
system.membus.snoopFanout::total               273252                       # Request fanout histogram (Count)
system.membus.power_state.pwrStateResidencyTicks::UNDEFINED   1000326000                       # Cumulative time (in ticks) in various power states (Tick)
system.membus.reqLayer0.occupancy           182728032                       # Layer occupancy (ticks) (Tick)
system.membus.reqLayer0.utilization               0.2                       # Layer utilization (Ratio)
system.membus.respLayer0.occupancy          173628610                       # Layer occupancy (ticks) (Tick)
system.membus.respLayer0.utilization              0.2                       # Layer utilization (Ratio)
system.membus.snoop_filter.totRequests              0                       # Total number of requests made to the snoop filter. (Count)
system.membus.snoop_filter.hitSingleRequests            0                       # Number of requests hitting in the snoop filter with a single holder of the requested data. (Count)
system.membus.snoop_filter.hitMultiRequests            0                       # Number of requests hitting in the snoop filter with multiple (>1) holders of the requested data. (Count)
system.membus.snoop_filter.totSnoops                0                       # Total number of snoops made to the snoop filter. (Count)
system.membus.snoop_filter.hitSingleSnoops            0                       # Number of snoops hitting in the snoop filter with a single holder of the requested data. (Count)
system.membus.snoop_filter.hitMultiSnoops            0                       # Number of snoops hitting in the snoop filter with multiple (>1) holders of the requested data. (Count)
system.workload.inst.arm                            0                       # number of arm instructions executed (Count)
system.workload.inst.quiesce                        0                       # number of quiesce instructions executed (Count)

---------- End Simulation Statistics   ----------
