
---------- Begin Simulation Statistics ----------
simSeconds                                          2                       # Number of seconds simulated (Second)
simTicks                                 2000000000000                       # Number of ticks simulated (Tick)
finalTick                                22309888108250                       # Number of ticks from beginning of simulation (restored from checkpoints and never reset) (Tick)
simFreq                                  1000000000000                       # The number of ticks per simulated second ((Tick/Second))
hostSeconds                                   6165.51                       # Real time elapsed on the host (Second)
hostTickRate                                324385104                       # The number of ticks simulated per host second (ticks/s) ((Tick/Second))
hostMemory                                   12523036                       # Number of bytes of host memory used (Byte)
simInsts                                  49475081911                       # Number of instructions simulated (Count)
simOps                                    50195958798                       # Number of ops (including micro ops) simulated (Count)
hostInstRate                                  8024490                       # Simulator instruction rate (inst/s) ((Count/Second))
hostOpRate                                    8141410                       # Simulator op (including micro ops) rate (op/s) ((Count/Second))
system.atomicCpu0.numCycles                         0                       # Number of cpu cycles simulated (Cycle)
system.atomicCpu0.numWorkItemsStarted               0                       # Number of work items this cpu started (Count)
system.atomicCpu0.numWorkItemsCompleted             0                       # Number of work items this cpu completed (Count)
system.atomicCpu0.exec_context.thread_0.numInsts            0                       # Number of instructions committed (Count)
system.atomicCpu0.exec_context.thread_0.numOps            0                       # Number of ops (including micro ops) committed (Count)
system.atomicCpu0.exec_context.thread_0.numIntAluAccesses            0                       # Number of integer alu accesses (Count)
system.atomicCpu0.exec_context.thread_0.numFpAluAccesses            0                       # Number of float alu accesses (Count)
system.atomicCpu0.exec_context.thread_0.numVecAluAccesses            0                       # Number of vector alu accesses (Count)
system.atomicCpu0.exec_context.thread_0.numCallsReturns            0                       # Number of times a function call or return occured (Count)
system.atomicCpu0.exec_context.thread_0.numCondCtrlInsts            0                       # Number of instructions that are conditional controls (Count)
system.atomicCpu0.exec_context.thread_0.numIntInsts            0                       # Number of integer instructions (Count)
system.atomicCpu0.exec_context.thread_0.numFpInsts            0                       # Number of float instructions (Count)
system.atomicCpu0.exec_context.thread_0.numVecInsts            0                       # Number of vector instructions (Count)
system.atomicCpu0.exec_context.thread_0.numIntRegReads            0                       # Number of times the integer registers were read (Count)
system.atomicCpu0.exec_context.thread_0.numIntRegWrites            0                       # Number of times the integer registers were written (Count)
system.atomicCpu0.exec_context.thread_0.numFpRegReads            0                       # Number of times the floating registers were read (Count)
system.atomicCpu0.exec_context.thread_0.numFpRegWrites            0                       # Number of times the floating registers were written (Count)
system.atomicCpu0.exec_context.thread_0.numVecRegReads            0                       # Number of times the vector registers were read (Count)
system.atomicCpu0.exec_context.thread_0.numVecRegWrites            0                       # Number of times the vector registers were written (Count)
system.atomicCpu0.exec_context.thread_0.numVecPredRegReads            0                       # Number of times the predicate registers were read (Count)
system.atomicCpu0.exec_context.thread_0.numVecPredRegWrites            0                       # Number of times the predicate registers were written (Count)
system.atomicCpu0.exec_context.thread_0.numMiscRegReads            0                       # Number of times the Misc registers were read (Count)
system.atomicCpu0.exec_context.thread_0.numMiscRegWrites            0                       # Number of times the Misc registers were written (Count)
system.atomicCpu0.exec_context.thread_0.numMemRefs            0                       # Number of memory refs (Count)
system.atomicCpu0.exec_context.thread_0.numLoadInsts            0                       # Number of load instructions (Count)
system.atomicCpu0.exec_context.thread_0.numStoreInsts            0                       # Number of store instructions (Count)
system.atomicCpu0.exec_context.thread_0.numIdleCycles            0                       # Number of idle cycles (Cycle)
system.atomicCpu0.exec_context.thread_0.numBusyCycles            0                       # Number of busy cycles (Cycle)
system.atomicCpu0.exec_context.thread_0.notIdleFraction            0                       # Percentage of non-idle cycles (Ratio)
system.atomicCpu0.exec_context.thread_0.idleFraction            1                       # Percentage of idle cycles (Ratio)
system.atomicCpu0.exec_context.thread_0.statExecutedInstType::No_OpClass            0                       # Class of executed instruction. (Count)
system.atomicCpu0.exec_context.thread_0.statExecutedInstType::IntAlu            0                       # Class of executed instruction. (Count)
system.atomicCpu0.exec_context.thread_0.statExecutedInstType::IntMult            0                       # Class of executed instruction. (Count)
system.atomicCpu0.exec_context.thread_0.statExecutedInstType::IntDiv            0                       # Class of executed instruction. (Count)
system.atomicCpu0.exec_context.thread_0.statExecutedInstType::FloatAdd            0                       # Class of executed instruction. (Count)
system.atomicCpu0.exec_context.thread_0.statExecutedInstType::FloatCmp            0                       # Class of executed instruction. (Count)
system.atomicCpu0.exec_context.thread_0.statExecutedInstType::FloatCvt            0                       # Class of executed instruction. (Count)
system.atomicCpu0.exec_context.thread_0.statExecutedInstType::FloatMult            0                       # Class of executed instruction. (Count)
system.atomicCpu0.exec_context.thread_0.statExecutedInstType::FloatMultAcc            0                       # Class of executed instruction. (Count)
system.atomicCpu0.exec_context.thread_0.statExecutedInstType::FloatDiv            0                       # Class of executed instruction. (Count)
system.atomicCpu0.exec_context.thread_0.statExecutedInstType::FloatMisc            0                       # Class of executed instruction. (Count)
system.atomicCpu0.exec_context.thread_0.statExecutedInstType::FloatSqrt            0                       # Class of executed instruction. (Count)
system.atomicCpu0.exec_context.thread_0.statExecutedInstType::SimdAdd            0                       # Class of executed instruction. (Count)
system.atomicCpu0.exec_context.thread_0.statExecutedInstType::SimdAddAcc            0                       # Class of executed instruction. (Count)
system.atomicCpu0.exec_context.thread_0.statExecutedInstType::SimdAlu            0                       # Class of executed instruction. (Count)
system.atomicCpu0.exec_context.thread_0.statExecutedInstType::SimdCmp            0                       # Class of executed instruction. (Count)
system.atomicCpu0.exec_context.thread_0.statExecutedInstType::SimdCvt            0                       # Class of executed instruction. (Count)
system.atomicCpu0.exec_context.thread_0.statExecutedInstType::SimdMisc            0                       # Class of executed instruction. (Count)
system.atomicCpu0.exec_context.thread_0.statExecutedInstType::SimdMult            0                       # Class of executed instruction. (Count)
system.atomicCpu0.exec_context.thread_0.statExecutedInstType::SimdMultAcc            0                       # Class of executed instruction. (Count)
system.atomicCpu0.exec_context.thread_0.statExecutedInstType::SimdShift            0                       # Class of executed instruction. (Count)
system.atomicCpu0.exec_context.thread_0.statExecutedInstType::SimdShiftAcc            0                       # Class of executed instruction. (Count)
system.atomicCpu0.exec_context.thread_0.statExecutedInstType::SimdDiv            0                       # Class of executed instruction. (Count)
system.atomicCpu0.exec_context.thread_0.statExecutedInstType::SimdSqrt            0                       # Class of executed instruction. (Count)
system.atomicCpu0.exec_context.thread_0.statExecutedInstType::SimdFloatAdd            0                       # Class of executed instruction. (Count)
system.atomicCpu0.exec_context.thread_0.statExecutedInstType::SimdFloatAlu            0                       # Class of executed instruction. (Count)
system.atomicCpu0.exec_context.thread_0.statExecutedInstType::SimdFloatCmp            0                       # Class of executed instruction. (Count)
system.atomicCpu0.exec_context.thread_0.statExecutedInstType::SimdFloatCvt            0                       # Class of executed instruction. (Count)
system.atomicCpu0.exec_context.thread_0.statExecutedInstType::SimdFloatDiv            0                       # Class of executed instruction. (Count)
system.atomicCpu0.exec_context.thread_0.statExecutedInstType::SimdFloatMisc            0                       # Class of executed instruction. (Count)
system.atomicCpu0.exec_context.thread_0.statExecutedInstType::SimdFloatMult            0                       # Class of executed instruction. (Count)
system.atomicCpu0.exec_context.thread_0.statExecutedInstType::SimdFloatMultAcc            0                       # Class of executed instruction. (Count)
system.atomicCpu0.exec_context.thread_0.statExecutedInstType::SimdFloatSqrt            0                       # Class of executed instruction. (Count)
system.atomicCpu0.exec_context.thread_0.statExecutedInstType::SimdReduceAdd            0                       # Class of executed instruction. (Count)
system.atomicCpu0.exec_context.thread_0.statExecutedInstType::SimdReduceAlu            0                       # Class of executed instruction. (Count)
system.atomicCpu0.exec_context.thread_0.statExecutedInstType::SimdReduceCmp            0                       # Class of executed instruction. (Count)
system.atomicCpu0.exec_context.thread_0.statExecutedInstType::SimdFloatReduceAdd            0                       # Class of executed instruction. (Count)
system.atomicCpu0.exec_context.thread_0.statExecutedInstType::SimdFloatReduceCmp            0                       # Class of executed instruction. (Count)
system.atomicCpu0.exec_context.thread_0.statExecutedInstType::SimdAes            0                       # Class of executed instruction. (Count)
system.atomicCpu0.exec_context.thread_0.statExecutedInstType::SimdAesMix            0                       # Class of executed instruction. (Count)
system.atomicCpu0.exec_context.thread_0.statExecutedInstType::SimdSha1Hash            0                       # Class of executed instruction. (Count)
system.atomicCpu0.exec_context.thread_0.statExecutedInstType::SimdSha1Hash2            0                       # Class of executed instruction. (Count)
system.atomicCpu0.exec_context.thread_0.statExecutedInstType::SimdSha256Hash            0                       # Class of executed instruction. (Count)
system.atomicCpu0.exec_context.thread_0.statExecutedInstType::SimdSha256Hash2            0                       # Class of executed instruction. (Count)
system.atomicCpu0.exec_context.thread_0.statExecutedInstType::SimdShaSigma2            0                       # Class of executed instruction. (Count)
system.atomicCpu0.exec_context.thread_0.statExecutedInstType::SimdShaSigma3            0                       # Class of executed instruction. (Count)
system.atomicCpu0.exec_context.thread_0.statExecutedInstType::SimdPredAlu            0                       # Class of executed instruction. (Count)
system.atomicCpu0.exec_context.thread_0.statExecutedInstType::MemRead            0                       # Class of executed instruction. (Count)
system.atomicCpu0.exec_context.thread_0.statExecutedInstType::MemWrite            0                       # Class of executed instruction. (Count)
system.atomicCpu0.exec_context.thread_0.statExecutedInstType::FloatMemRead            0                       # Class of executed instruction. (Count)
system.atomicCpu0.exec_context.thread_0.statExecutedInstType::FloatMemWrite            0                       # Class of executed instruction. (Count)
system.atomicCpu0.exec_context.thread_0.statExecutedInstType::IprAccess            0                       # Class of executed instruction. (Count)
system.atomicCpu0.exec_context.thread_0.statExecutedInstType::InstPrefetch            0                       # Class of executed instruction. (Count)
system.atomicCpu0.exec_context.thread_0.statExecutedInstType::total            0                       # Class of executed instruction. (Count)
system.atomicCpu0.mmu.dtb.rdAccesses                0                       # TLB accesses on read requests (Count)
system.atomicCpu0.mmu.dtb.wrAccesses                0                       # TLB accesses on write requests (Count)
system.atomicCpu0.mmu.dtb.rdMisses                  0                       # TLB misses on read requests (Count)
system.atomicCpu0.mmu.dtb.wrMisses                  0                       # TLB misses on write requests (Count)
system.atomicCpu0.mmu.dtb.walker.power_state.pwrStateResidencyTicks::UNDEFINED 22309888108250                       # Cumulative time (in ticks) in various power states (Tick)
system.atomicCpu0.mmu.itb.rdAccesses                0                       # TLB accesses on read requests (Count)
system.atomicCpu0.mmu.itb.wrAccesses                0                       # TLB accesses on write requests (Count)
system.atomicCpu0.mmu.itb.rdMisses                  0                       # TLB misses on read requests (Count)
system.atomicCpu0.mmu.itb.wrMisses                  0                       # TLB misses on write requests (Count)
system.atomicCpu0.mmu.itb.walker.power_state.pwrStateResidencyTicks::UNDEFINED 22309888108250                       # Cumulative time (in ticks) in various power states (Tick)
system.atomicCpu0.power_state.pwrStateResidencyTicks::OFF 22309888108250                       # Cumulative time (in ticks) in various power states (Tick)
system.atomicCpu0.thread_0.numInsts                 0                       # Number of Instructions committed (Count)
system.atomicCpu0.thread_0.numOps                   0                       # Number of Ops committed (Count)
system.atomicCpu0.thread_0.numMemRefs               0                       # Number of Memory References (Count)
system.atomicCpu1.numCycles                         0                       # Number of cpu cycles simulated (Cycle)
system.atomicCpu1.numWorkItemsStarted               0                       # Number of work items this cpu started (Count)
system.atomicCpu1.numWorkItemsCompleted             0                       # Number of work items this cpu completed (Count)
system.atomicCpu1.exec_context.thread_0.numInsts            0                       # Number of instructions committed (Count)
system.atomicCpu1.exec_context.thread_0.numOps            0                       # Number of ops (including micro ops) committed (Count)
system.atomicCpu1.exec_context.thread_0.numIntAluAccesses            0                       # Number of integer alu accesses (Count)
system.atomicCpu1.exec_context.thread_0.numFpAluAccesses            0                       # Number of float alu accesses (Count)
system.atomicCpu1.exec_context.thread_0.numVecAluAccesses            0                       # Number of vector alu accesses (Count)
system.atomicCpu1.exec_context.thread_0.numCallsReturns            0                       # Number of times a function call or return occured (Count)
system.atomicCpu1.exec_context.thread_0.numCondCtrlInsts            0                       # Number of instructions that are conditional controls (Count)
system.atomicCpu1.exec_context.thread_0.numIntInsts            0                       # Number of integer instructions (Count)
system.atomicCpu1.exec_context.thread_0.numFpInsts            0                       # Number of float instructions (Count)
system.atomicCpu1.exec_context.thread_0.numVecInsts            0                       # Number of vector instructions (Count)
system.atomicCpu1.exec_context.thread_0.numIntRegReads            0                       # Number of times the integer registers were read (Count)
system.atomicCpu1.exec_context.thread_0.numIntRegWrites            0                       # Number of times the integer registers were written (Count)
system.atomicCpu1.exec_context.thread_0.numFpRegReads            0                       # Number of times the floating registers were read (Count)
system.atomicCpu1.exec_context.thread_0.numFpRegWrites            0                       # Number of times the floating registers were written (Count)
system.atomicCpu1.exec_context.thread_0.numVecRegReads            0                       # Number of times the vector registers were read (Count)
system.atomicCpu1.exec_context.thread_0.numVecRegWrites            0                       # Number of times the vector registers were written (Count)
system.atomicCpu1.exec_context.thread_0.numVecPredRegReads            0                       # Number of times the predicate registers were read (Count)
system.atomicCpu1.exec_context.thread_0.numVecPredRegWrites            0                       # Number of times the predicate registers were written (Count)
system.atomicCpu1.exec_context.thread_0.numMiscRegReads            0                       # Number of times the Misc registers were read (Count)
system.atomicCpu1.exec_context.thread_0.numMiscRegWrites            0                       # Number of times the Misc registers were written (Count)
system.atomicCpu1.exec_context.thread_0.numMemRefs            0                       # Number of memory refs (Count)
system.atomicCpu1.exec_context.thread_0.numLoadInsts            0                       # Number of load instructions (Count)
system.atomicCpu1.exec_context.thread_0.numStoreInsts            0                       # Number of store instructions (Count)
system.atomicCpu1.exec_context.thread_0.numIdleCycles            0                       # Number of idle cycles (Cycle)
system.atomicCpu1.exec_context.thread_0.numBusyCycles            0                       # Number of busy cycles (Cycle)
system.atomicCpu1.exec_context.thread_0.notIdleFraction            0                       # Percentage of non-idle cycles (Ratio)
system.atomicCpu1.exec_context.thread_0.idleFraction            1                       # Percentage of idle cycles (Ratio)
system.atomicCpu1.exec_context.thread_0.statExecutedInstType::No_OpClass            0                       # Class of executed instruction. (Count)
system.atomicCpu1.exec_context.thread_0.statExecutedInstType::IntAlu            0                       # Class of executed instruction. (Count)
system.atomicCpu1.exec_context.thread_0.statExecutedInstType::IntMult            0                       # Class of executed instruction. (Count)
system.atomicCpu1.exec_context.thread_0.statExecutedInstType::IntDiv            0                       # Class of executed instruction. (Count)
system.atomicCpu1.exec_context.thread_0.statExecutedInstType::FloatAdd            0                       # Class of executed instruction. (Count)
system.atomicCpu1.exec_context.thread_0.statExecutedInstType::FloatCmp            0                       # Class of executed instruction. (Count)
system.atomicCpu1.exec_context.thread_0.statExecutedInstType::FloatCvt            0                       # Class of executed instruction. (Count)
system.atomicCpu1.exec_context.thread_0.statExecutedInstType::FloatMult            0                       # Class of executed instruction. (Count)
system.atomicCpu1.exec_context.thread_0.statExecutedInstType::FloatMultAcc            0                       # Class of executed instruction. (Count)
system.atomicCpu1.exec_context.thread_0.statExecutedInstType::FloatDiv            0                       # Class of executed instruction. (Count)
system.atomicCpu1.exec_context.thread_0.statExecutedInstType::FloatMisc            0                       # Class of executed instruction. (Count)
system.atomicCpu1.exec_context.thread_0.statExecutedInstType::FloatSqrt            0                       # Class of executed instruction. (Count)
system.atomicCpu1.exec_context.thread_0.statExecutedInstType::SimdAdd            0                       # Class of executed instruction. (Count)
system.atomicCpu1.exec_context.thread_0.statExecutedInstType::SimdAddAcc            0                       # Class of executed instruction. (Count)
system.atomicCpu1.exec_context.thread_0.statExecutedInstType::SimdAlu            0                       # Class of executed instruction. (Count)
system.atomicCpu1.exec_context.thread_0.statExecutedInstType::SimdCmp            0                       # Class of executed instruction. (Count)
system.atomicCpu1.exec_context.thread_0.statExecutedInstType::SimdCvt            0                       # Class of executed instruction. (Count)
system.atomicCpu1.exec_context.thread_0.statExecutedInstType::SimdMisc            0                       # Class of executed instruction. (Count)
system.atomicCpu1.exec_context.thread_0.statExecutedInstType::SimdMult            0                       # Class of executed instruction. (Count)
system.atomicCpu1.exec_context.thread_0.statExecutedInstType::SimdMultAcc            0                       # Class of executed instruction. (Count)
system.atomicCpu1.exec_context.thread_0.statExecutedInstType::SimdShift            0                       # Class of executed instruction. (Count)
system.atomicCpu1.exec_context.thread_0.statExecutedInstType::SimdShiftAcc            0                       # Class of executed instruction. (Count)
system.atomicCpu1.exec_context.thread_0.statExecutedInstType::SimdDiv            0                       # Class of executed instruction. (Count)
system.atomicCpu1.exec_context.thread_0.statExecutedInstType::SimdSqrt            0                       # Class of executed instruction. (Count)
system.atomicCpu1.exec_context.thread_0.statExecutedInstType::SimdFloatAdd            0                       # Class of executed instruction. (Count)
system.atomicCpu1.exec_context.thread_0.statExecutedInstType::SimdFloatAlu            0                       # Class of executed instruction. (Count)
system.atomicCpu1.exec_context.thread_0.statExecutedInstType::SimdFloatCmp            0                       # Class of executed instruction. (Count)
system.atomicCpu1.exec_context.thread_0.statExecutedInstType::SimdFloatCvt            0                       # Class of executed instruction. (Count)
system.atomicCpu1.exec_context.thread_0.statExecutedInstType::SimdFloatDiv            0                       # Class of executed instruction. (Count)
system.atomicCpu1.exec_context.thread_0.statExecutedInstType::SimdFloatMisc            0                       # Class of executed instruction. (Count)
system.atomicCpu1.exec_context.thread_0.statExecutedInstType::SimdFloatMult            0                       # Class of executed instruction. (Count)
system.atomicCpu1.exec_context.thread_0.statExecutedInstType::SimdFloatMultAcc            0                       # Class of executed instruction. (Count)
system.atomicCpu1.exec_context.thread_0.statExecutedInstType::SimdFloatSqrt            0                       # Class of executed instruction. (Count)
system.atomicCpu1.exec_context.thread_0.statExecutedInstType::SimdReduceAdd            0                       # Class of executed instruction. (Count)
system.atomicCpu1.exec_context.thread_0.statExecutedInstType::SimdReduceAlu            0                       # Class of executed instruction. (Count)
system.atomicCpu1.exec_context.thread_0.statExecutedInstType::SimdReduceCmp            0                       # Class of executed instruction. (Count)
system.atomicCpu1.exec_context.thread_0.statExecutedInstType::SimdFloatReduceAdd            0                       # Class of executed instruction. (Count)
system.atomicCpu1.exec_context.thread_0.statExecutedInstType::SimdFloatReduceCmp            0                       # Class of executed instruction. (Count)
system.atomicCpu1.exec_context.thread_0.statExecutedInstType::SimdAes            0                       # Class of executed instruction. (Count)
system.atomicCpu1.exec_context.thread_0.statExecutedInstType::SimdAesMix            0                       # Class of executed instruction. (Count)
system.atomicCpu1.exec_context.thread_0.statExecutedInstType::SimdSha1Hash            0                       # Class of executed instruction. (Count)
system.atomicCpu1.exec_context.thread_0.statExecutedInstType::SimdSha1Hash2            0                       # Class of executed instruction. (Count)
system.atomicCpu1.exec_context.thread_0.statExecutedInstType::SimdSha256Hash            0                       # Class of executed instruction. (Count)
system.atomicCpu1.exec_context.thread_0.statExecutedInstType::SimdSha256Hash2            0                       # Class of executed instruction. (Count)
system.atomicCpu1.exec_context.thread_0.statExecutedInstType::SimdShaSigma2            0                       # Class of executed instruction. (Count)
system.atomicCpu1.exec_context.thread_0.statExecutedInstType::SimdShaSigma3            0                       # Class of executed instruction. (Count)
system.atomicCpu1.exec_context.thread_0.statExecutedInstType::SimdPredAlu            0                       # Class of executed instruction. (Count)
system.atomicCpu1.exec_context.thread_0.statExecutedInstType::MemRead            0                       # Class of executed instruction. (Count)
system.atomicCpu1.exec_context.thread_0.statExecutedInstType::MemWrite            0                       # Class of executed instruction. (Count)
system.atomicCpu1.exec_context.thread_0.statExecutedInstType::FloatMemRead            0                       # Class of executed instruction. (Count)
system.atomicCpu1.exec_context.thread_0.statExecutedInstType::FloatMemWrite            0                       # Class of executed instruction. (Count)
system.atomicCpu1.exec_context.thread_0.statExecutedInstType::IprAccess            0                       # Class of executed instruction. (Count)
system.atomicCpu1.exec_context.thread_0.statExecutedInstType::InstPrefetch            0                       # Class of executed instruction. (Count)
system.atomicCpu1.exec_context.thread_0.statExecutedInstType::total            0                       # Class of executed instruction. (Count)
system.atomicCpu1.mmu.dtb.rdAccesses                0                       # TLB accesses on read requests (Count)
system.atomicCpu1.mmu.dtb.wrAccesses                0                       # TLB accesses on write requests (Count)
system.atomicCpu1.mmu.dtb.rdMisses                  0                       # TLB misses on read requests (Count)
system.atomicCpu1.mmu.dtb.wrMisses                  0                       # TLB misses on write requests (Count)
system.atomicCpu1.mmu.dtb.walker.power_state.pwrStateResidencyTicks::UNDEFINED 22309888108250                       # Cumulative time (in ticks) in various power states (Tick)
system.atomicCpu1.mmu.itb.rdAccesses                0                       # TLB accesses on read requests (Count)
system.atomicCpu1.mmu.itb.wrAccesses                0                       # TLB accesses on write requests (Count)
system.atomicCpu1.mmu.itb.rdMisses                  0                       # TLB misses on read requests (Count)
system.atomicCpu1.mmu.itb.wrMisses                  0                       # TLB misses on write requests (Count)
system.atomicCpu1.mmu.itb.walker.power_state.pwrStateResidencyTicks::UNDEFINED 22309888108250                       # Cumulative time (in ticks) in various power states (Tick)
system.atomicCpu1.power_state.pwrStateResidencyTicks::OFF 22309888108250                       # Cumulative time (in ticks) in various power states (Tick)
system.atomicCpu1.thread_0.numInsts                 0                       # Number of Instructions committed (Count)
system.atomicCpu1.thread_0.numOps                   0                       # Number of Ops committed (Count)
system.atomicCpu1.thread_0.numMemRefs               0                       # Number of Memory References (Count)
system.caches.delayHistogram::bucket_size          128                       # delay histogram for all message (Unspecified)
system.caches.delayHistogram::max_bucket         1279                       # delay histogram for all message (Unspecified)
system.caches.delayHistogram::samples       159919060                       # delay histogram for all message (Unspecified)
system.caches.delayHistogram::mean           0.543802                       # delay histogram for all message (Unspecified)
system.caches.delayHistogram::stdev          2.022590                       # delay histogram for all message (Unspecified)
system.caches.delayHistogram             |   159919059    100.00%    100.00% |           0      0.00%    100.00% |           0      0.00%    100.00% |           0      0.00%    100.00% |           0      0.00%    100.00% |           1      0.00%    100.00% |           0      0.00%    100.00% |           0      0.00%    100.00% |           0      0.00%    100.00% |           0      0.00%    100.00% # delay histogram for all message (Unspecified)
system.caches.delayHistogram::total         159919060                       # delay histogram for all message (Unspecified)
system.caches.m_outstandReqHistSeqr::bucket_size            1                       (Unspecified)
system.caches.m_outstandReqHistSeqr::max_bucket            9                       (Unspecified)
system.caches.m_outstandReqHistSeqr::samples   2393438149                       (Unspecified)
system.caches.m_outstandReqHistSeqr::mean            1                       (Unspecified)
system.caches.m_outstandReqHistSeqr::gmean            1                       (Unspecified)
system.caches.m_outstandReqHistSeqr      |           0      0.00%      0.00% |  2393438149    100.00%    100.00% |           0      0.00%    100.00% |           0      0.00%    100.00% |           0      0.00%    100.00% |           0      0.00%    100.00% |           0      0.00%    100.00% |           0      0.00%    100.00% |           0      0.00%    100.00% |           0      0.00%    100.00% (Unspecified)
system.caches.m_outstandReqHistSeqr::total   2393438149                       (Unspecified)
system.caches.m_latencyHistSeqr::bucket_size          512                       (Unspecified)
system.caches.m_latencyHistSeqr::max_bucket         5119                       (Unspecified)
system.caches.m_latencyHistSeqr::samples   2393438147                       (Unspecified)
system.caches.m_latencyHistSeqr::mean        5.666862                       (Unspecified)
system.caches.m_latencyHistSeqr::gmean       1.058125                       (Unspecified)
system.caches.m_latencyHistSeqr::stdev      55.322760                       (Unspecified)
system.caches.m_latencyHistSeqr          |  2381913761     99.52%     99.52% |    11036680      0.46%     99.98% |       89506      0.00%     99.98% |      354387      0.01%    100.00% |       43425      0.00%    100.00% |         388      0.00%    100.00% |           0      0.00%    100.00% |           0      0.00%    100.00% |           0      0.00%    100.00% |           0      0.00%    100.00% (Unspecified)
system.caches.m_latencyHistSeqr::total     2393438147                       (Unspecified)
system.caches.m_hitLatencyHistSeqr::bucket_size            1                       (Unspecified)
system.caches.m_hitLatencyHistSeqr::max_bucket            9                       (Unspecified)
system.caches.m_hitLatencyHistSeqr::samples   2368965050                       (Unspecified)
system.caches.m_hitLatencyHistSeqr::mean            1                       (Unspecified)
system.caches.m_hitLatencyHistSeqr::gmean            1                       (Unspecified)
system.caches.m_hitLatencyHistSeqr       |           0      0.00%      0.00% |  2368965050    100.00%    100.00% |           0      0.00%    100.00% |           0      0.00%    100.00% |           0      0.00%    100.00% |           0      0.00%    100.00% |           0      0.00%    100.00% |           0      0.00%    100.00% |           0      0.00%    100.00% |           0      0.00%    100.00% (Unspecified)
system.caches.m_hitLatencyHistSeqr::total   2368965050                       (Unspecified)
system.caches.m_missLatencyHistSeqr::bucket_size          512                       (Unspecified)
system.caches.m_missLatencyHistSeqr::max_bucket         5119                       (Unspecified)
system.caches.m_missLatencyHistSeqr::samples     24473097                       (Unspecified)
system.caches.m_missLatencyHistSeqr::mean   457.413242                       (Unspecified)
system.caches.m_missLatencyHistSeqr::gmean   251.008996                       (Unspecified)
system.caches.m_missLatencyHistSeqr::stdev   305.189402                       (Unspecified)
system.caches.m_missLatencyHistSeqr      |    12948711     52.91%     52.91% |    11036680     45.10%     98.01% |       89506      0.37%     98.37% |      354387      1.45%     99.82% |       43425      0.18%    100.00% |         388      0.00%    100.00% |           0      0.00%    100.00% |           0      0.00%    100.00% |           0      0.00%    100.00% |           0      0.00%    100.00% (Unspecified)
system.caches.m_missLatencyHistSeqr::total     24473097                       (Unspecified)
system.caches.delayVCHist.vnet_0::bucket_size          128                       # delay histogram for vnet_0 (Unspecified)
system.caches.delayVCHist.vnet_0::max_bucket         1279                       # delay histogram for vnet_0 (Unspecified)
system.caches.delayVCHist.vnet_0::samples     72964706                       # delay histogram for vnet_0 (Unspecified)
system.caches.delayVCHist.vnet_0::mean       1.191123                       # delay histogram for vnet_0 (Unspecified)
system.caches.delayVCHist.vnet_0::stdev      2.862074                       # delay histogram for vnet_0 (Unspecified)
system.caches.delayVCHist.vnet_0         |    72964705    100.00%    100.00% |           0      0.00%    100.00% |           0      0.00%    100.00% |           0      0.00%    100.00% |           0      0.00%    100.00% |           1      0.00%    100.00% |           0      0.00%    100.00% |           0      0.00%    100.00% |           0      0.00%    100.00% |           0      0.00%    100.00% # delay histogram for vnet_0 (Unspecified)
system.caches.delayVCHist.vnet_0::total      72964706                       # delay histogram for vnet_0 (Unspecified)
system.caches.delayVCHist.vnet_1::bucket_size            4                       # delay histogram for vnet_1 (Unspecified)
system.caches.delayVCHist.vnet_1::max_bucket           39                       # delay histogram for vnet_1 (Unspecified)
system.caches.delayVCHist.vnet_1::samples     86840077                       # delay histogram for vnet_1 (Unspecified)
system.caches.delayVCHist.vnet_1::mean       0.000626                       # delay histogram for vnet_1 (Unspecified)
system.caches.delayVCHist.vnet_1::stdev      0.057888                       # delay histogram for vnet_1 (Unspecified)
system.caches.delayVCHist.vnet_1         |    86831651     99.99%     99.99% |        7002      0.01%    100.00% |        1421      0.00%    100.00% |           2      0.00%    100.00% |           0      0.00%    100.00% |           1      0.00%    100.00% |           0      0.00%    100.00% |           0      0.00%    100.00% |           0      0.00%    100.00% |           0      0.00%    100.00% # delay histogram for vnet_1 (Unspecified)
system.caches.delayVCHist.vnet_1::total      86840077                       # delay histogram for vnet_1 (Unspecified)
system.caches.delayVCHist.vnet_2::bucket_size            1                       # delay histogram for vnet_2 (Unspecified)
system.caches.delayVCHist.vnet_2::max_bucket            9                       # delay histogram for vnet_2 (Unspecified)
system.caches.delayVCHist.vnet_2::samples       114277                       # delay histogram for vnet_2 (Unspecified)
system.caches.delayVCHist.vnet_2::mean       0.000035                       # delay histogram for vnet_2 (Unspecified)
system.caches.delayVCHist.vnet_2::stdev      0.008367                       # delay histogram for vnet_2 (Unspecified)
system.caches.delayVCHist.vnet_2         |      114275    100.00%    100.00% |           0      0.00%    100.00% |           2      0.00%    100.00% |           0      0.00%    100.00% |           0      0.00%    100.00% |           0      0.00%    100.00% |           0      0.00%    100.00% |           0      0.00%    100.00% |           0      0.00%    100.00% |           0      0.00%    100.00% # delay histogram for vnet_2 (Unspecified)
system.caches.delayVCHist.vnet_2::total        114277                       # delay histogram for vnet_2 (Unspecified)
system.caches.L1Cache_Controller.Load    |   198854063     50.11%     50.11% |   198002804     49.89%    100.00% (Unspecified)
system.caches.L1Cache_Controller.Load::total    396856867                       (Unspecified)
system.caches.L1Cache_Controller.Ifetch  |   914162130     50.09%     50.09% |   910967960     49.91%    100.00% (Unspecified)
system.caches.L1Cache_Controller.Ifetch::total   1825130090                       (Unspecified)
system.caches.L1Cache_Controller.Store   |    85876580     50.09%     50.09% |    85574612     49.91%    100.00% (Unspecified)
system.caches.L1Cache_Controller.Store::total    171451192                       (Unspecified)
system.caches.L1Cache_Controller.Inv     |       46218     47.28%     47.28% |       51538     52.72%    100.00% (Unspecified)
system.caches.L1Cache_Controller.Inv::total        97756                       (Unspecified)
system.caches.L1Cache_Controller.L1_Replacement |    12177071     50.00%     50.00% |    12176764     50.00%    100.00% (Unspecified)
system.caches.L1Cache_Controller.L1_Replacement::total     24353835                       (Unspecified)
system.caches.L1Cache_Controller.Fwd_GETX |          64     29.36%     29.36% |         154     70.64%    100.00% (Unspecified)
system.caches.L1Cache_Controller.Fwd_GETX::total          218                       (Unspecified)
system.caches.L1Cache_Controller.Fwd_GETS |       14766     90.57%     90.57% |        1537      9.43%    100.00% (Unspecified)
system.caches.L1Cache_Controller.Fwd_GETS::total        16303                       (Unspecified)
system.caches.L1Cache_Controller.Data    |         956     99.79%     99.79% |           2      0.21%    100.00% (Unspecified)
system.caches.L1Cache_Controller.Data::total          958                       (Unspecified)
system.caches.L1Cache_Controller.Data_Exclusive |     9262337     49.96%     49.96% |     9276528     50.04%    100.00% (Unspecified)
system.caches.L1Cache_Controller.Data_Exclusive::total     18538865                       (Unspecified)
system.caches.L1Cache_Controller.DataS_fromL1 |        1537      9.43%      9.43% |       14766     90.57%    100.00% (Unspecified)
system.caches.L1Cache_Controller.DataS_fromL1::total        16303                       (Unspecified)
system.caches.L1Cache_Controller.Data_all_Acks |     2961252     50.16%     50.16% |     2942296     49.84%    100.00% (Unspecified)
system.caches.L1Cache_Controller.Data_all_Acks::total      5903548                       (Unspecified)
system.caches.L1Cache_Controller.Ack     |       13217     98.47%     98.47% |         206      1.53%    100.00% (Unspecified)
system.caches.L1Cache_Controller.Ack::total        13423                       (Unspecified)
system.caches.L1Cache_Controller.Ack_all |       14173     98.55%     98.55% |         208      1.45%    100.00% (Unspecified)
system.caches.L1Cache_Controller.Ack_all::total        14381                       (Unspecified)
system.caches.L1Cache_Controller.WB_Ack  |    12087086     49.92%     49.92% |    12127369     50.08%    100.00% (Unspecified)
system.caches.L1Cache_Controller.WB_Ack::total     24214455                       (Unspecified)
system.caches.L1Cache_Controller.NP.Load |     9277886     49.96%     49.96% |     9292102     50.04%    100.00% (Unspecified)
system.caches.L1Cache_Controller.NP.Load::total     18569988                       (Unspecified)
system.caches.L1Cache_Controller.NP.Ifetch |       67533     69.91%     69.91% |       29072     30.09%    100.00% (Unspecified)
system.caches.L1Cache_Controller.NP.Ifetch::total        96605                       (Unspecified)
system.caches.L1Cache_Controller.NP.Store |     2840355     49.79%     49.79% |     2864280     50.21%    100.00% (Unspecified)
system.caches.L1Cache_Controller.NP.Store::total      5704635                       (Unspecified)
system.caches.L1Cache_Controller.NP.Inv  |        2007     53.52%     53.52% |        1743     46.48%    100.00% (Unspecified)
system.caches.L1Cache_Controller.NP.Inv::total         3750                       (Unspecified)
system.caches.L1Cache_Controller.I.Load  |        6042     24.00%     24.00% |       19136     76.00%    100.00% (Unspecified)
system.caches.L1Cache_Controller.I.Load::total        25178                       (Unspecified)
system.caches.L1Cache_Controller.I.Ifetch |       32109     54.11%     54.11% |       27235     45.89%    100.00% (Unspecified)
system.caches.L1Cache_Controller.I.Ifetch::total        59344                       (Unspecified)
system.caches.L1Cache_Controller.I.Store |        2158     54.98%     54.98% |        1767     45.02%    100.00% (Unspecified)
system.caches.L1Cache_Controller.I.Store::total         3925                       (Unspecified)
system.caches.L1Cache_Controller.I.L1_Replacement |        3698     70.83%     70.83% |        1523     29.17%    100.00% (Unspecified)
system.caches.L1Cache_Controller.I.L1_Replacement::total         5221                       (Unspecified)
system.caches.L1Cache_Controller.S.Load  |      414571     45.07%     45.07% |      505275     54.93%    100.00% (Unspecified)
system.caches.L1Cache_Controller.S.Load::total       919846                       (Unspecified)
system.caches.L1Cache_Controller.S.Ifetch |   914062488     50.09%     50.09% |   910911653     49.91%    100.00% (Unspecified)
system.caches.L1Cache_Controller.S.Ifetch::total   1824974141                       (Unspecified)
system.caches.L1Cache_Controller.S.Store |       13217     98.46%     98.46% |         207      1.54%    100.00% (Unspecified)
system.caches.L1Cache_Controller.S.Store::total        13424                       (Unspecified)
system.caches.L1Cache_Controller.S.Inv   |       36173     45.02%     45.02% |       44179     54.98%    100.00% (Unspecified)
system.caches.L1Cache_Controller.S.Inv::total        80352                       (Unspecified)
system.caches.L1Cache_Controller.S.L1_Replacement |       86287     64.32%     64.32% |       47872     35.68%    100.00% (Unspecified)
system.caches.L1Cache_Controller.S.L1_Replacement::total       134159                       (Unspecified)
system.caches.L1Cache_Controller.E.Load  |    83795853     52.50%     52.50% |    75824628     47.50%    100.00% (Unspecified)
system.caches.L1Cache_Controller.E.Load::total    159620481                       (Unspecified)
system.caches.L1Cache_Controller.E.Store |     2540803     50.04%     50.04% |     2537193     49.96%    100.00% (Unspecified)
system.caches.L1Cache_Controller.E.Store::total      5077996                       (Unspecified)
system.caches.L1Cache_Controller.E.Inv   |        4497     61.75%     61.75% |        2786     38.25%    100.00% (Unspecified)
system.caches.L1Cache_Controller.E.Inv::total         7283                       (Unspecified)
system.caches.L1Cache_Controller.E.L1_Replacement |     6710824     49.93%     49.93% |     6729494     50.07%    100.00% (Unspecified)
system.caches.L1Cache_Controller.E.L1_Replacement::total     13440318                       (Unspecified)
system.caches.L1Cache_Controller.E.Fwd_GETX |           2      1.42%      1.42% |         139     98.58%    100.00% (Unspecified)
system.caches.L1Cache_Controller.E.Fwd_GETX::total          141                       (Unspecified)
system.caches.L1Cache_Controller.E.Fwd_GETS |         582     28.96%     28.96% |        1428     71.04%    100.00% (Unspecified)
system.caches.L1Cache_Controller.E.Fwd_GETS::total         2010                       (Unspecified)
system.caches.L1Cache_Controller.M.Load  |   105359711     48.39%     48.39% |   112361663     51.61%    100.00% (Unspecified)
system.caches.L1Cache_Controller.M.Load::total    217721374                       (Unspecified)
system.caches.L1Cache_Controller.M.Store |    80480047     50.10%     50.10% |    80171165     49.90%    100.00% (Unspecified)
system.caches.L1Cache_Controller.M.Store::total    160651212                       (Unspecified)
system.caches.L1Cache_Controller.M.Inv   |        3541     55.61%     55.61% |        2826     44.39%    100.00% (Unspecified)
system.caches.L1Cache_Controller.M.Inv::total         6367                       (Unspecified)
system.caches.L1Cache_Controller.M.L1_Replacement |     5376262     49.90%     49.90% |     5397875     50.10%    100.00% (Unspecified)
system.caches.L1Cache_Controller.M.L1_Replacement::total     10774137                       (Unspecified)
system.caches.L1Cache_Controller.M.Fwd_GETX |          62     80.52%     80.52% |          15     19.48%    100.00% (Unspecified)
system.caches.L1Cache_Controller.M.Fwd_GETX::total           77                       (Unspecified)
system.caches.L1Cache_Controller.M.Fwd_GETS |       14184     99.24%     99.24% |         109      0.76%    100.00% (Unspecified)
system.caches.L1Cache_Controller.M.Fwd_GETS::total        14293                       (Unspecified)
system.caches.L1Cache_Controller.IS.Inv  |           0      0.00%      0.00% |           3    100.00%    100.00% (Unspecified)
system.caches.L1Cache_Controller.IS.Inv::total            3                       (Unspecified)
system.caches.L1Cache_Controller.IS.Data_Exclusive |     9262337     49.96%     49.96% |     9276528     50.04%    100.00% (Unspecified)
system.caches.L1Cache_Controller.IS.Data_Exclusive::total     18538865                       (Unspecified)
system.caches.L1Cache_Controller.IS.DataS_fromL1 |        1537      9.43%      9.43% |       14765     90.57%    100.00% (Unspecified)
system.caches.L1Cache_Controller.IS.DataS_fromL1::total        16302                       (Unspecified)
system.caches.L1Cache_Controller.IS.Data_all_Acks |      119695     61.09%     61.09% |       76248     38.91%    100.00% (Unspecified)
system.caches.L1Cache_Controller.IS.Data_all_Acks::total       195943                       (Unspecified)
system.caches.L1Cache_Controller.IM.Data |         956     99.79%     99.79% |           2      0.21%    100.00% (Unspecified)
system.caches.L1Cache_Controller.IM.Data::total          958                       (Unspecified)
system.caches.L1Cache_Controller.IM.Data_all_Acks |     2841557     49.79%     49.79% |     2866046     50.21%    100.00% (Unspecified)
system.caches.L1Cache_Controller.IM.Data_all_Acks::total      5707603                       (Unspecified)
system.caches.L1Cache_Controller.SM.Inv  |           0      0.00%      0.00% |           1    100.00%    100.00% (Unspecified)
system.caches.L1Cache_Controller.SM.Inv::total            1                       (Unspecified)
system.caches.L1Cache_Controller.SM.Ack  |       13217     98.47%     98.47% |         206      1.53%    100.00% (Unspecified)
system.caches.L1Cache_Controller.SM.Ack::total        13423                       (Unspecified)
system.caches.L1Cache_Controller.SM.Ack_all |       14173     98.55%     98.55% |         208      1.45%    100.00% (Unspecified)
system.caches.L1Cache_Controller.SM.Ack_all::total        14381                       (Unspecified)
system.caches.L1Cache_Controller.IS_I.DataS_fromL1 |           0      0.00%      0.00% |           1    100.00%    100.00% (Unspecified)
system.caches.L1Cache_Controller.IS_I.DataS_fromL1::total            1                       (Unspecified)
system.caches.L1Cache_Controller.IS_I.Data_all_Acks |           0      0.00%      0.00% |           2    100.00%    100.00% (Unspecified)
system.caches.L1Cache_Controller.IS_I.Data_all_Acks::total            2                       (Unspecified)
system.caches.L1Cache_Controller.M_I.WB_Ack |    12087086     49.92%     49.92% |    12127369     50.08%    100.00% (Unspecified)
system.caches.L1Cache_Controller.M_I.WB_Ack::total     24214455                       (Unspecified)
system.caches.Directory_Controller.Fetch     19083583      0.00%      0.00% (Unspecified)
system.caches.Directory_Controller.Data       8186181      0.00%      0.00% (Unspecified)
system.caches.Directory_Controller.Memory_Data     19083610      0.00%      0.00% (Unspecified)
system.caches.Directory_Controller.Memory_Ack      8186181      0.00%      0.00% (Unspecified)
system.caches.Directory_Controller.DMA_READ         2403      0.00%      0.00% (Unspecified)
system.caches.Directory_Controller.CleanReplacement     10766330      0.00%      0.00% (Unspecified)
system.caches.Directory_Controller.I.Fetch     19083583      0.00%      0.00% (Unspecified)
system.caches.Directory_Controller.I.DMA_READ           29      0.00%      0.00% (Unspecified)
system.caches.Directory_Controller.ID.Memory_Data           29      0.00%      0.00% (Unspecified)
system.caches.Directory_Controller.M.Data      8183807      0.00%      0.00% (Unspecified)
system.caches.Directory_Controller.M.DMA_READ         2374      0.00%      0.00% (Unspecified)
system.caches.Directory_Controller.M.CleanReplacement     10766330      0.00%      0.00% (Unspecified)
system.caches.Directory_Controller.IM.Memory_Data     19083581      0.00%      0.00% (Unspecified)
system.caches.Directory_Controller.MI.Memory_Ack      8183807      0.00%      0.00% (Unspecified)
system.caches.Directory_Controller.M_DRD.Data         2374      0.00%      0.00% (Unspecified)
system.caches.Directory_Controller.M_DRDI.Memory_Ack         2374      0.00%      0.00% (Unspecified)
system.caches.DMA_Controller.ReadRequest |        2403    100.00%    100.00% |           0      0.00%    100.00% (Unspecified)
system.caches.DMA_Controller.ReadRequest::total         2403                       (Unspecified)
system.caches.DMA_Controller.Data        |        2403    100.00%    100.00% |           0      0.00%    100.00% (Unspecified)
system.caches.DMA_Controller.Data::total         2403                       (Unspecified)
system.caches.DMA_Controller.READY.ReadRequest |        2403    100.00%    100.00% |           0      0.00%    100.00% (Unspecified)
system.caches.DMA_Controller.READY.ReadRequest::total         2403                       (Unspecified)
system.caches.DMA_Controller.BUSY_RD.Data |        2403    100.00%    100.00% |           0      0.00%    100.00% (Unspecified)
system.caches.DMA_Controller.BUSY_RD.Data::total         2403                       (Unspecified)
system.caches.L2Cache_Controller.L1_GET_INSTR |       14974      9.60%      9.60% |       23393     15.00%     24.59% |       20671     13.25%     37.85% |        8513      5.46%     43.30% |       15153      9.71%     53.02% |       21124     13.54%     66.56% |       24471     15.69%     82.25% |       27697     17.75%    100.00% (Unspecified)
system.caches.L2Cache_Controller.L1_GET_INSTR::total       155996                       (Unspecified)
system.caches.L2Cache_Controller.L1_GETS |     2334296     12.55%     12.55% |     2326861     12.51%     25.06% |     2323185     12.49%     37.55% |     2320269     12.47%     50.02% |     2321582     12.48%     62.50% |     2319615     12.47%     74.97% |     2332837     12.54%     87.52% |     2321981     12.48%    100.00% (Unspecified)
system.caches.L2Cache_Controller.L1_GETS::total     18600626                       (Unspecified)
system.caches.L2Cache_Controller.L1_GETX |      716079     12.54%     12.54% |      712760     12.49%     25.03% |      711875     12.47%     37.50% |      712820     12.49%     49.99% |      712433     12.48%     62.47% |      715445     12.53%     75.00% |      713439     12.50%     87.50% |      713769     12.50%    100.00% (Unspecified)
system.caches.L2Cache_Controller.L1_GETX::total      5708620                       (Unspecified)
system.caches.L2Cache_Controller.L1_UPGRADE |        2879     16.00%     16.00% |        1644      9.14%     25.13% |          30      0.17%     25.30% |          21      0.12%     25.42% |          57      0.32%     25.73% |          20      0.11%     25.84% |       13294     73.87%     99.72% |          51      0.28%    100.00% (Unspecified)
system.caches.L2Cache_Controller.L1_UPGRADE::total        17996                       (Unspecified)
system.caches.L2Cache_Controller.L1_PUTX |     3030490     12.52%     12.52% |     3027976     12.50%     25.02% |     3024756     12.49%     37.51% |     3025652     12.50%     50.01% |     3026240     12.50%     62.50% |     3027513     12.50%     75.01% |     3025798     12.50%     87.50% |     3026030     12.50%    100.00% (Unspecified)
system.caches.L2Cache_Controller.L1_PUTX::total     24214455                       (Unspecified)
system.caches.L2Cache_Controller.L2_Replacement |     1022588     12.50%     12.50% |     1022309     12.50%     25.00% |     1022448     12.50%     37.50% |     1022184     12.50%     50.00% |     1022293     12.50%     62.50% |     1022505     12.50%     75.00% |     1022484     12.50%     87.50% |     1022610     12.50%    100.00% (Unspecified)
system.caches.L2Cache_Controller.L2_Replacement::total      8179421                       (Unspecified)
system.caches.L2Cache_Controller.L2_Replacement_clean |     1347016     12.51%     12.51% |     1347463     12.51%     25.02% |     1346117     12.50%     37.51% |     1345310     12.49%     50.01% |     1346108     12.50%     62.50% |     1346748     12.50%     75.01% |     1345726     12.49%     87.50% |     1346228     12.50%    100.00% (Unspecified)
system.caches.L2Cache_Controller.L2_Replacement_clean::total     10770716                       (Unspecified)
system.caches.L2Cache_Controller.Mem_Data |     2386287     12.50%     12.50% |     2386453     12.51%     25.01% |     2385246     12.50%     37.51% |     2384175     12.49%     50.00% |     2385081     12.50%     62.50% |     2385933     12.50%     75.00% |     2384889     12.50%     87.50% |     2385517     12.50%    100.00% (Unspecified)
system.caches.L2Cache_Controller.Mem_Data::total     19083581                       (Unspecified)
system.caches.L2Cache_Controller.Mem_Ack |     2369903     12.50%     12.50% |     2370069     12.51%     25.01% |     2368862     12.50%     37.51% |     2367791     12.49%     50.00% |     2368697     12.50%     62.50% |     2369549     12.50%     75.00% |     2368506     12.50%     87.50% |     2369134     12.50%    100.00% (Unspecified)
system.caches.L2Cache_Controller.Mem_Ack::total     18952511                       (Unspecified)
system.caches.L2Cache_Controller.WB_Data |        4697     22.73%     22.73% |        2114     10.23%     32.97% |         413      2.00%     34.97% |         747      3.62%     38.58% |         745      3.61%     42.19% |        1305      6.32%     48.50% |        9724     47.07%     95.57% |         915      4.43%    100.00% (Unspecified)
system.caches.L2Cache_Controller.WB_Data::total        20660                       (Unspecified)
system.caches.L2Cache_Controller.WB_Data_clean |         373     18.56%     18.56% |         337     16.77%     35.32% |         324     16.12%     51.44% |         240     11.94%     63.38% |         193      9.60%     72.99% |         138      6.87%     79.85% |         117      5.82%     85.67% |         288     14.33%    100.00% (Unspecified)
system.caches.L2Cache_Controller.WB_Data_clean::total         2010                       (Unspecified)
system.caches.L2Cache_Controller.Ack     |        4213     13.70%     13.70% |        4153     13.51%     27.21% |        3866     12.57%     39.78% |        3267     10.63%     50.41% |        3943     12.82%     63.23% |        4117     13.39%     76.62% |        3523     11.46%     88.08% |        3666     11.92%    100.00% (Unspecified)
system.caches.L2Cache_Controller.Ack::total        30748                       (Unspecified)
system.caches.L2Cache_Controller.Ack_all |        6091     13.17%     13.17% |        7034     15.21%     28.37% |        5728     12.38%     40.75% |        4923     10.64%     51.40% |        5786     12.51%     63.90% |        5904     12.76%     76.67% |        5189     11.22%     87.88% |        5605     12.12%    100.00% (Unspecified)
system.caches.L2Cache_Controller.Ack_all::total        46260                       (Unspecified)
system.caches.L2Cache_Controller.Unblock |        3933     24.12%     24.12% |        1865     11.44%     35.56% |         358      2.20%     37.76% |         264      1.62%     39.38% |         267      1.64%     41.02% |         166      1.02%     42.04% |        9103     55.84%     97.87% |         347      2.13%    100.00% (Unspecified)
system.caches.L2Cache_Controller.Unblock::total        16303                       (Unspecified)
system.caches.L2Cache_Controller.Exclusive_Unblock |     3038446     12.52%     12.52% |     3034107     12.51%     25.03% |     3028338     12.48%     37.51% |     3029361     12.49%     50.00% |     3030182     12.49%     62.49% |     3031898     12.50%     74.99% |     3038612     12.52%     87.51% |     3029905     12.49%    100.00% (Unspecified)
system.caches.L2Cache_Controller.Exclusive_Unblock::total     24260849                       (Unspecified)
system.caches.L2Cache_Controller.MEM_Inv |         598     12.59%     12.59% |         594     12.51%     25.11% |         594     12.51%     37.62% |         594     12.51%     50.13% |         592     12.47%     62.59% |         592     12.47%     75.06% |         592     12.47%     87.53% |         592     12.47%    100.00% (Unspecified)
system.caches.L2Cache_Controller.MEM_Inv::total         4748                       (Unspecified)
system.caches.L2Cache_Controller.NP.L1_GET_INSTR |        4784     13.22%     13.22% |        5065     14.00%     27.22% |        4401     12.16%     39.38% |        3935     10.87%     50.25% |        4536     12.53%     62.78% |        4771     13.18%     75.97% |        4140     11.44%     87.41% |        4557     12.59%    100.00% (Unspecified)
system.caches.L2Cache_Controller.NP.L1_GET_INSTR::total        36189                       (Unspecified)
system.caches.L2Cache_Controller.NP.L1_GETS |     1669853     12.50%     12.50% |     1670236     12.50%     25.01% |     1669869     12.50%     37.51% |     1669119     12.50%     50.00% |     1669459     12.50%     62.50% |     1669451     12.50%     75.00% |     1669490     12.50%     87.50% |     1669619     12.50%    100.00% (Unspecified)
system.caches.L2Cache_Controller.NP.L1_GETS::total     13357096                       (Unspecified)
system.caches.L2Cache_Controller.NP.L1_GETX |      711650     12.51%     12.51% |      711152     12.50%     25.00% |      710976     12.49%     37.50% |      711121     12.50%     50.00% |      711086     12.50%     62.49% |      711711     12.51%     75.00% |      711260     12.50%     87.50% |      711342     12.50%    100.00% (Unspecified)
system.caches.L2Cache_Controller.NP.L1_GETX::total      5690298                       (Unspecified)
system.caches.L2Cache_Controller.SS.L1_GET_INSTR |        8650      7.95%      7.95% |       16694     15.34%     23.29% |       14940     13.73%     37.02% |        3371      3.10%     40.12% |        9172      8.43%     48.55% |       14903     13.70%     62.24% |       19089     17.54%     79.79% |       21995     20.21%    100.00% (Unspecified)
system.caches.L2Cache_Controller.SS.L1_GET_INSTR::total       108814                       (Unspecified)
system.caches.L2Cache_Controller.SS.L1_GETS |       10365     27.57%     27.57% |        4965     13.21%     40.78% |        5920     15.75%     56.53% |        3261      8.68%     65.21% |        3367      8.96%     74.16% |        2741      7.29%     81.46% |        1786      4.75%     86.21% |        5185     13.79%    100.00% (Unspecified)
system.caches.L2Cache_Controller.SS.L1_GETS::total        37590                       (Unspecified)
system.caches.L2Cache_Controller.SS.L1_GETX |         680     70.98%     70.98% |           2      0.21%     71.19% |           3      0.31%     71.50% |           2      0.21%     71.71% |          10      1.04%     72.76% |           1      0.10%     72.86% |         258     26.93%     99.79% |           2      0.21%    100.00% (Unspecified)
system.caches.L2Cache_Controller.SS.L1_GETX::total          958                       (Unspecified)
system.caches.L2Cache_Controller.SS.L1_UPGRADE |        2878     21.44%     21.44% |        1644     12.25%     33.69% |          30      0.22%     33.91% |          21      0.16%     34.07% |          57      0.42%     34.49% |          20      0.15%     34.64% |        8722     64.98%     99.62% |          51      0.38%    100.00% (Unspecified)
system.caches.L2Cache_Controller.SS.L1_UPGRADE::total        13423                       (Unspecified)
system.caches.L2Cache_Controller.SS.L2_Replacement |           6     10.71%     10.71% |           9     16.07%     26.79% |           3      5.36%     32.14% |           5      8.93%     41.07% |          12     21.43%     62.50% |           9     16.07%     78.57% |           6     10.71%     89.29% |           6     10.71%    100.00% (Unspecified)
system.caches.L2Cache_Controller.SS.L2_Replacement::total           56                       (Unspecified)
system.caches.L2Cache_Controller.SS.L2_Replacement_clean |        5355     13.76%     13.76% |        5383     13.83%     27.59% |        4908     12.61%     40.20% |        4247     10.91%     51.11% |        4805     12.35%     63.46% |        4993     12.83%     76.29% |        4262     10.95%     87.24% |        4968     12.76%    100.00% (Unspecified)
system.caches.L2Cache_Controller.SS.L2_Replacement_clean::total        38921                       (Unspecified)
system.caches.L2Cache_Controller.M.L1_GETS |      649889     12.54%     12.54% |      649623     12.53%     25.07% |      646798     12.48%     37.55% |      647512     12.49%     50.05% |      648355     12.51%     62.55% |      647120     12.49%     75.04% |      647027     12.48%     87.52% |      646650     12.48%    100.00% (Unspecified)
system.caches.L2Cache_Controller.M.L1_GETS::total      5182974                       (Unspecified)
system.caches.L2Cache_Controller.M.L1_GETX |        3605     21.10%     21.10% |        1590      9.31%     30.40% |         889      5.20%     35.61% |        1680      9.83%     45.44% |        1332      7.80%     53.23% |        3713     21.73%     74.96% |        1880     11.00%     85.97% |        2398     14.03%    100.00% (Unspecified)
system.caches.L2Cache_Controller.M.L1_GETX::total        17087                       (Unspecified)
system.caches.L2Cache_Controller.M.L2_Replacement |     1022246     12.50%     12.50% |     1022131     12.50%     25.00% |     1022366     12.50%     37.50% |     1021945     12.50%     50.00% |     1022086     12.50%     62.50% |     1022163     12.50%     75.00% |     1022241     12.50%     87.50% |     1022295     12.50%    100.00% (Unspecified)
system.caches.L2Cache_Controller.M.L2_Replacement::total      8177473                       (Unspecified)
system.caches.L2Cache_Controller.M.L2_Replacement_clean |     1340390     12.50%     12.50% |     1340285     12.50%     25.00% |     1340352     12.50%     37.50% |     1340166     12.50%     50.00% |     1340117     12.50%     62.50% |     1340169     12.50%     75.00% |     1340301     12.50%     87.50% |     1340344     12.50%    100.00% (Unspecified)
system.caches.L2Cache_Controller.M.L2_Replacement_clean::total     10722124                       (Unspecified)
system.caches.L2Cache_Controller.M.MEM_Inv |          39     13.59%     13.59% |          33     11.50%     25.09% |          37     12.89%     37.98% |          34     11.85%     49.83% |          37     12.89%     62.72% |          36     12.54%     75.26% |          37     12.89%     88.15% |          34     11.85%    100.00% (Unspecified)
system.caches.L2Cache_Controller.M.MEM_Inv::total          287                       (Unspecified)
system.caches.L2Cache_Controller.MT.L1_GETS |        3933     24.12%     24.12% |        1865     11.44%     35.56% |         358      2.20%     37.76% |         264      1.62%     39.38% |         267      1.64%     41.02% |         166      1.02%     42.04% |        9103     55.84%     97.87% |         347      2.13%    100.00% (Unspecified)
system.caches.L2Cache_Controller.MT.L1_GETS::total        16303                       (Unspecified)
system.caches.L2Cache_Controller.MT.L1_GETX |         143     65.60%     65.60% |          13      5.96%     71.56% |           5      2.29%     73.85% |          15      6.88%     80.73% |           4      1.83%     82.57% |           7      3.21%     85.78% |          17      7.80%     93.58% |          14      6.42%    100.00% (Unspecified)
system.caches.L2Cache_Controller.MT.L1_GETX::total          218                       (Unspecified)
system.caches.L2Cache_Controller.MT.L1_PUTX |     3030490     12.52%     12.52% |     3027976     12.50%     25.02% |     3024756     12.49%     37.51% |     3025652     12.50%     50.01% |     3026240     12.50%     62.50% |     3027513     12.50%     75.01% |     3025798     12.50%     87.50% |     3026030     12.50%    100.00% (Unspecified)
system.caches.L2Cache_Controller.MT.L1_PUTX::total     24214455                       (Unspecified)
system.caches.L2Cache_Controller.MT.L2_Replacement |         336     17.76%     17.76% |         169      8.93%     26.69% |          79      4.18%     30.87% |         234     12.37%     43.23% |         195     10.31%     53.54% |         333     17.60%     71.14% |         237     12.53%     83.67% |         309     16.33%    100.00% (Unspecified)
system.caches.L2Cache_Controller.MT.L2_Replacement::total         1892                       (Unspecified)
system.caches.L2Cache_Controller.MT.L2_Replacement_clean |        1271     13.14%     13.14% |        1795     18.56%     31.70% |         857      8.86%     40.56% |         897      9.28%     49.84% |        1186     12.26%     62.10% |        1586     16.40%     78.50% |        1163     12.03%     90.53% |         916      9.47%    100.00% (Unspecified)
system.caches.L2Cache_Controller.MT.L2_Replacement_clean::total         9671                       (Unspecified)
system.caches.L2Cache_Controller.MT.MEM_Inv |         260     12.46%     12.46% |         264     12.65%     25.11% |         260     12.46%     37.57% |         263     12.60%     50.17% |         259     12.41%     62.58% |         260     12.46%     75.04% |         259     12.41%     87.45% |         262     12.55%    100.00% (Unspecified)
system.caches.L2Cache_Controller.MT.MEM_Inv::total         2087                       (Unspecified)
system.caches.L2Cache_Controller.M_I.L1_GET_INSTR |           6     12.77%     12.77% |          12     25.53%     38.30% |           8     17.02%     55.32% |           3      6.38%     61.70% |           6     12.77%     74.47% |           2      4.26%     78.72% |           6     12.77%     91.49% |           4      8.51%    100.00% (Unspecified)
system.caches.L2Cache_Controller.M_I.L1_GET_INSTR::total           47                       (Unspecified)
system.caches.L2Cache_Controller.M_I.L1_GETS |           3      4.35%      4.35% |          18     26.09%     30.43% |           7     10.14%     40.58% |           2      2.90%     43.48% |          11     15.94%     59.42% |          12     17.39%     76.81% |           9     13.04%     89.86% |           7     10.14%    100.00% (Unspecified)
system.caches.L2Cache_Controller.M_I.L1_GETS::total           69                       (Unspecified)
system.caches.L2Cache_Controller.M_I.L1_GETX |           1      1.72%      1.72% |           2      3.45%      5.17% |           2      3.45%      8.62% |           2      3.45%     12.07% |           1      1.72%     13.79% |          13     22.41%     36.21% |          24     41.38%     77.59% |          13     22.41%    100.00% (Unspecified)
system.caches.L2Cache_Controller.M_I.L1_GETX::total           58                       (Unspecified)
system.caches.L2Cache_Controller.M_I.Mem_Ack |     2369903     12.50%     12.50% |     2370069     12.51%     25.01% |     2368862     12.50%     37.51% |     2367791     12.49%     50.00% |     2368697     12.50%     62.50% |     2369549     12.50%     75.00% |     2368506     12.50%     87.50% |     2369134     12.50%    100.00% (Unspecified)
system.caches.L2Cache_Controller.M_I.Mem_Ack::total     18952511                       (Unspecified)
system.caches.L2Cache_Controller.M_I.MEM_Inv |          39     13.59%     13.59% |          33     11.50%     25.09% |          37     12.89%     37.98% |          34     11.85%     49.83% |          37     12.89%     62.72% |          36     12.54%     75.26% |          37     12.89%     88.15% |          34     11.85%    100.00% (Unspecified)
system.caches.L2Cache_Controller.M_I.MEM_Inv::total          287                       (Unspecified)
system.caches.L2Cache_Controller.MT_I.WB_Data |         351     17.72%     17.72% |         179      9.04%     26.75% |          95      4.80%     31.55% |         250     12.62%     44.17% |         205     10.35%     54.52% |         347     17.52%     72.03% |         234     11.81%     83.85% |         320     16.15%    100.00% (Unspecified)
system.caches.L2Cache_Controller.MT_I.WB_Data::total         1981                       (Unspecified)
system.caches.L2Cache_Controller.MT_I.Ack_all |         245     12.26%     12.26% |         254     12.71%     24.97% |         244     12.21%     37.19% |         247     12.36%     49.55% |         249     12.46%     62.01% |         246     12.31%     74.32% |         262     13.11%     87.44% |         251     12.56%    100.00% (Unspecified)
system.caches.L2Cache_Controller.MT_I.Ack_all::total         1998                       (Unspecified)
system.caches.L2Cache_Controller.MT_I.MEM_Inv |         260     12.46%     12.46% |         264     12.65%     25.11% |         260     12.46%     37.57% |         263     12.60%     50.17% |         259     12.41%     62.58% |         260     12.46%     75.04% |         259     12.41%     87.45% |         262     12.55%    100.00% (Unspecified)
system.caches.L2Cache_Controller.MT_I.MEM_Inv::total         2087                       (Unspecified)
system.caches.L2Cache_Controller.MCT_I.WB_Data |         786     17.92%     17.92% |         407      9.28%     27.20% |         284      6.48%     33.68% |         473     10.78%     44.46% |         466     10.62%     55.08% |         930     21.20%     76.29% |         504     11.49%     87.78% |         536     12.22%    100.00% (Unspecified)
system.caches.L2Cache_Controller.MCT_I.WB_Data::total         4386                       (Unspecified)
system.caches.L2Cache_Controller.MCT_I.Ack_all |         485      9.18%      9.18% |        1388     26.26%     35.44% |         573     10.84%     46.28% |         424      8.02%     54.30% |         720     13.62%     67.93% |         656     12.41%     80.34% |         659     12.47%     92.81% |         380      7.19%    100.00% (Unspecified)
system.caches.L2Cache_Controller.MCT_I.Ack_all::total         5285                       (Unspecified)
system.caches.L2Cache_Controller.I_I.Ack |        4207     13.71%     13.71% |        4144     13.50%     27.21% |        3863     12.59%     39.80% |        3262     10.63%     50.42% |        3931     12.81%     63.23% |        4108     13.38%     76.62% |        3517     11.46%     88.08% |        3660     11.92%    100.00% (Unspecified)
system.caches.L2Cache_Controller.I_I.Ack::total        30692                       (Unspecified)
system.caches.L2Cache_Controller.I_I.Ack_all |        5355     13.76%     13.76% |        5383     13.83%     27.59% |        4908     12.61%     40.20% |        4247     10.91%     51.11% |        4805     12.35%     63.46% |        4993     12.83%     76.29% |        4262     10.95%     87.24% |        4968     12.76%    100.00% (Unspecified)
system.caches.L2Cache_Controller.I_I.Ack_all::total        38921                       (Unspecified)
system.caches.L2Cache_Controller.S_I.Ack |           6     10.71%     10.71% |           9     16.07%     26.79% |           3      5.36%     32.14% |           5      8.93%     41.07% |          12     21.43%     62.50% |           9     16.07%     78.57% |           6     10.71%     89.29% |           6     10.71%    100.00% (Unspecified)
system.caches.L2Cache_Controller.S_I.Ack::total           56                       (Unspecified)
system.caches.L2Cache_Controller.S_I.Ack_all |           6     10.71%     10.71% |           9     16.07%     26.79% |           3      5.36%     32.14% |           5      8.93%     41.07% |          12     21.43%     62.50% |           9     16.07%     78.57% |           6     10.71%     89.29% |           6     10.71%    100.00% (Unspecified)
system.caches.L2Cache_Controller.S_I.Ack_all::total           56                       (Unspecified)
system.caches.L2Cache_Controller.ISS.L1_GETS |         252     20.95%     20.95% |         153     12.72%     33.67% |         232     19.29%     52.95% |         109      9.06%     62.01% |         121     10.06%     72.07% |         125     10.39%     82.46% |          41      3.41%     85.87% |         170     14.13%    100.00% (Unspecified)
system.caches.L2Cache_Controller.ISS.L1_GETS::total         1203                       (Unspecified)
system.caches.L2Cache_Controller.ISS.Mem_Data |     1669601     12.50%     12.50% |     1670083     12.50%     25.01% |     1669637     12.50%     37.51% |     1669010     12.50%     50.00% |     1669338     12.50%     62.50% |     1669326     12.50%     75.00% |     1669448     12.50%     87.50% |     1669448     12.50%    100.00% (Unspecified)
system.caches.L2Cache_Controller.ISS.Mem_Data::total     13355891                       (Unspecified)
system.caches.L2Cache_Controller.IS.L1_GET_INSTR |        1534     14.01%     14.01% |        1622     14.82%     28.83% |        1322     12.08%     40.91% |        1204     11.00%     51.91% |        1439     13.15%     65.06% |        1448     13.23%     78.28% |        1236     11.29%     89.58% |        1141     10.42%    100.00% (Unspecified)
system.caches.L2Cache_Controller.IS.L1_GET_INSTR::total        10946                       (Unspecified)
system.caches.L2Cache_Controller.IS.Mem_Data |        5036     13.47%     13.47% |        5218     13.95%     27.42% |        4633     12.39%     39.81% |        4044     10.82%     50.63% |        4657     12.45%     63.08% |        4896     13.09%     76.18% |        4181     11.18%     87.36% |        4727     12.64%    100.00% (Unspecified)
system.caches.L2Cache_Controller.IS.Mem_Data::total        37392                       (Unspecified)
system.caches.L2Cache_Controller.IM.L1_GETX |           0      0.00%      0.00% |           1    100.00%    100.00% |           0      0.00%    100.00% |           0      0.00%    100.00% |           0      0.00%    100.00% |           0      0.00%    100.00% |           0      0.00%    100.00% |           0      0.00%    100.00% (Unspecified)
system.caches.L2Cache_Controller.IM.L1_GETX::total            1                       (Unspecified)
system.caches.L2Cache_Controller.IM.Mem_Data |      711650     12.51%     12.51% |      711152     12.50%     25.00% |      710976     12.49%     37.50% |      711121     12.50%     50.00% |      711086     12.50%     62.49% |      711711     12.51%     75.00% |      711260     12.50%     87.50% |      711342     12.50%    100.00% (Unspecified)
system.caches.L2Cache_Controller.IM.Mem_Data::total      5690298                       (Unspecified)
system.caches.L2Cache_Controller.SS_MB.L1_GETS |           0      0.00%      0.00% |           0      0.00%      0.00% |           0      0.00%      0.00% |           0      0.00%      0.00% |           0      0.00%      0.00% |           0      0.00%      0.00% |        5380    100.00%    100.00% |           0      0.00%    100.00% (Unspecified)
system.caches.L2Cache_Controller.SS_MB.L1_GETS::total         5380                       (Unspecified)
system.caches.L2Cache_Controller.SS_MB.L1_UPGRADE |           1    100.00%    100.00% |           0      0.00%    100.00% |           0      0.00%    100.00% |           0      0.00%    100.00% |           0      0.00%    100.00% |           0      0.00%    100.00% |           0      0.00%    100.00% |           0      0.00%    100.00% (Unspecified)
system.caches.L2Cache_Controller.SS_MB.L1_UPGRADE::total            1                       (Unspecified)
system.caches.L2Cache_Controller.SS_MB.Exclusive_Unblock |        3558     24.74%     24.74% |        1646     11.45%     36.19% |          33      0.23%     36.42% |          23      0.16%     36.58% |          67      0.47%     37.04% |          21      0.15%     37.19% |        8980     62.44%     99.63% |          53      0.37%    100.00% (Unspecified)
system.caches.L2Cache_Controller.SS_MB.Exclusive_Unblock::total        14381                       (Unspecified)
system.caches.L2Cache_Controller.MT_MB.L1_GETS |           1      9.09%      9.09% |           1      9.09%     18.18% |           1      9.09%     27.27% |           2     18.18%     45.45% |           2     18.18%     63.64% |           0      0.00%     63.64% |           1      9.09%     72.73% |           3     27.27%    100.00% (Unspecified)
system.caches.L2Cache_Controller.MT_MB.L1_GETS::total           11                       (Unspecified)
system.caches.L2Cache_Controller.MT_MB.Exclusive_Unblock |     3034888     12.52%     12.52% |     3032461     12.51%     25.02% |     3028305     12.49%     37.51% |     3029338     12.49%     50.01% |     3030115     12.50%     62.50% |     3031877     12.50%     75.01% |     3029632     12.50%     87.50% |     3029852     12.50%    100.00% (Unspecified)
system.caches.L2Cache_Controller.MT_MB.Exclusive_Unblock::total     24246468                       (Unspecified)
[...]
system.timingCpu0.exec_context.thread_0.statExecutedInstType::SimdSha1Hash2            0      0.00%     70.15% # Class of executed instruction. (Count)
system.timingCpu0.exec_context.thread_0.statExecutedInstType::SimdSha256Hash            0      0.00%     70.15% # Class of executed instruction. (Count)
system.timingCpu0.exec_context.thread_0.statExecutedInstType::SimdSha256Hash2            0      0.00%     70.15% # Class of executed instruction. (Count)
system.timingCpu0.exec_context.thread_0.statExecutedInstType::SimdShaSigma2            0      0.00%     70.15% # Class of executed instruction. (Count)
system.timingCpu0.exec_context.thread_0.statExecutedInstType::SimdShaSigma3            0      0.00%     70.15% # Class of executed instruction. (Count)
system.timingCpu0.exec_context.thread_0.statExecutedInstType::SimdPredAlu            0      0.00%     70.15% # Class of executed instruction. (Count)
system.timingCpu0.exec_context.thread_0.statExecutedInstType::MemRead      2254714      0.24%     70.39% # Class of executed instruction. (Count)
system.timingCpu0.exec_context.thread_0.statExecutedInstType::MemWrite      1140679      0.12%     70.51% # Class of executed instruction. (Count)
system.timingCpu0.exec_context.thread_0.statExecutedInstType::FloatMemRead    196490833     20.61%     91.12% # Class of executed instruction. (Count)
system.timingCpu0.exec_context.thread_0.statExecutedInstType::FloatMemWrite     84612501      8.88%    100.00% # Class of executed instruction. (Count)
system.timingCpu0.exec_context.thread_0.statExecutedInstType::IprAccess            0      0.00%    100.00% # Class of executed instruction. (Count)
system.timingCpu0.exec_context.thread_0.statExecutedInstType::InstPrefetch            0      0.00%    100.00% # Class of executed instruction. (Count)
system.timingCpu0.exec_context.thread_0.statExecutedInstType::total    953211372                       # Class of executed instruction. (Count)
system.timingCpu0.mmu.dtb.rdAccesses        198798412                       # TLB accesses on read requests (Count)
system.timingCpu0.mmu.dtb.wrAccesses         85761135                       # TLB accesses on write requests (Count)
system.timingCpu0.mmu.dtb.rdMisses              52903                       # TLB misses on read requests (Count)
system.timingCpu0.mmu.dtb.wrMisses               8020                       # TLB misses on write requests (Count)
system.timingCpu0.mmu.dtb.walker.power_state.pwrStateResidencyTicks::UNDEFINED 22309888108250                       # Cumulative time (in ticks) in various power states (Tick)
system.timingCpu0.mmu.itb.rdAccesses                0                       # TLB accesses on read requests (Count)
system.timingCpu0.mmu.itb.wrAccesses        914164806                       # TLB accesses on write requests (Count)
system.timingCpu0.mmu.itb.rdMisses                  0                       # TLB misses on read requests (Count)
system.timingCpu0.mmu.itb.wrMisses               2676                       # TLB misses on write requests (Count)
system.timingCpu0.mmu.itb.walker.power_state.pwrStateResidencyTicks::UNDEFINED 22309888108250                       # Cumulative time (in ticks) in various power states (Tick)
system.timingCpu0.power_state.numTransitions           22                       # Number of power state transitions (Count)
system.timingCpu0.power_state.ticksClkGated::samples           11                       # Distribution of time spent in the clock gated state (Tick)
system.timingCpu0.power_state.ticksClkGated::mean 943002181.818182                       # Distribution of time spent in the clock gated state (Tick)
system.timingCpu0.power_state.ticksClkGated::stdev 171887864.619390                       # Distribution of time spent in the clock gated state (Tick)
system.timingCpu0.power_state.ticksClkGated::1000-5e+10           11    100.00%    100.00% # Distribution of time spent in the clock gated state (Tick)
system.timingCpu0.power_state.ticksClkGated::min_value    425123000                       # Distribution of time spent in the clock gated state (Tick)
system.timingCpu0.power_state.ticksClkGated::max_value    997728250                       # Distribution of time spent in the clock gated state (Tick)
system.timingCpu0.power_state.ticksClkGated::total           11                       # Distribution of time spent in the clock gated state (Tick)
system.timingCpu0.power_state.pwrStateResidencyTicks::ON 1124490185250                       # Cumulative time (in ticks) in various power states (Tick)
system.timingCpu0.power_state.pwrStateResidencyTicks::CLK_GATED  10373024000                       # Cumulative time (in ticks) in various power states (Tick)
system.timingCpu0.power_state.pwrStateResidencyTicks::OFF 21175024899000                       # Cumulative time (in ticks) in various power states (Tick)
system.timingCpu0.thread_0.numInsts                 0                       # Number of Instructions committed (Count)
system.timingCpu0.thread_0.numOps                   0                       # Number of Ops committed (Count)
system.timingCpu0.thread_0.numMemRefs               0                       # Number of Memory References (Count)
system.timingCpu1.numCycles                7999999730                       # Number of cpu cycles simulated (Cycle)
system.timingCpu1.numWorkItemsStarted               0                       # Number of work items this cpu started (Count)
system.timingCpu1.numWorkItemsCompleted             0                       # Number of work items this cpu completed (Count)
system.timingCpu1.exec_context.thread_0.numInsts    588413451                       # Number of instructions committed (Count)
system.timingCpu1.exec_context.thread_0.numOps    946952922                       # Number of ops (including micro ops) committed (Count)
system.timingCpu1.exec_context.thread_0.numIntAluAccesses    349744609                       # Number of integer alu accesses (Count)
system.timingCpu1.exec_context.thread_0.numFpAluAccesses    878138368                       # Number of float alu accesses (Count)
system.timingCpu1.exec_context.thread_0.numVecAluAccesses            0                       # Number of vector alu accesses (Count)
system.timingCpu1.exec_context.thread_0.numCallsReturns       312176                       # Number of times a function call or return occured (Count)
system.timingCpu1.exec_context.thread_0.numCondCtrlInsts      6759164                       # Number of instructions that are conditional controls (Count)
system.timingCpu1.exec_context.thread_0.numIntInsts    349744609                       # Number of integer instructions (Count)
system.timingCpu1.exec_context.thread_0.numFpInsts    878138368                       # Number of float instructions (Count)
system.timingCpu1.exec_context.thread_0.numVecInsts            0                       # Number of vector instructions (Count)
system.timingCpu1.exec_context.thread_0.numIntRegReads    352811342                       # Number of times the integer registers were read (Count)
system.timingCpu1.exec_context.thread_0.numIntRegWrites     53964799                       # Number of times the integer registers were written (Count)
system.timingCpu1.exec_context.thread_0.numFpRegReads   1399766613                       # Number of times the floating registers were read (Count)
system.timingCpu1.exec_context.thread_0.numFpRegWrites    793357425                       # Number of times the floating registers were written (Count)
system.timingCpu1.exec_context.thread_0.numVecRegReads            0                       # Number of times the vector registers were read (Count)
system.timingCpu1.exec_context.thread_0.numVecRegWrites            0                       # Number of times the vector registers were written (Count)
system.timingCpu1.exec_context.thread_0.numVecPredRegReads            0                       # Number of times the predicate registers were read (Count)
system.timingCpu1.exec_context.thread_0.numVecPredRegWrites            0                       # Number of times the predicate registers were written (Count)
system.timingCpu1.exec_context.thread_0.numCCRegReads     35455788                       # Number of times the CC registers were read (Count)
system.timingCpu1.exec_context.thread_0.numCCRegWrites     49187989                       # Number of times the CC registers were written (Count)
system.timingCpu1.exec_context.thread_0.numMiscRegReads    297900639                       # Number of times the Misc registers were read (Count)
system.timingCpu1.exec_context.thread_0.numMiscRegWrites        68958                       # Number of times the Misc registers were written (Count)
system.timingCpu1.exec_context.thread_0.numMemRefs    283351070                       # Number of memory refs (Count)
system.timingCpu1.exec_context.thread_0.numLoadInsts    197860218                       # Number of load instructions (Count)
system.timingCpu1.exec_context.thread_0.numStoreInsts     85490852                       # Number of store instructions (Count)
system.timingCpu1.exec_context.thread_0.numIdleCycles            0                       # Number of idle cycles (Cycle)
system.timingCpu1.exec_context.thread_0.numBusyCycles   7999999730                       # Number of busy cycles (Cycle)
system.timingCpu1.exec_context.thread_0.notIdleFraction            1                       # Percentage of non-idle cycles (Ratio)
system.timingCpu1.exec_context.thread_0.idleFraction            0                       # Percentage of idle cycles (Ratio)
system.timingCpu1.exec_context.thread_0.numBranches      7241191                       # Number of branches fetched (Count)
system.timingCpu1.exec_context.thread_0.statExecutedInstType::No_OpClass        63147      0.01%      0.01% # Class of executed instruction. (Count)
system.timingCpu1.exec_context.thread_0.statExecutedInstType::IntAlu    274701583     29.01%     29.02% # Class of executed instruction. (Count)
system.timingCpu1.exec_context.thread_0.statExecutedInstType::IntMult        46629      0.00%     29.02% # Class of executed instruction. (Count)
system.timingCpu1.exec_context.thread_0.statExecutedInstType::IntDiv        87017      0.01%     29.03% # Class of executed instruction. (Count)
system.timingCpu1.exec_context.thread_0.statExecutedInstType::FloatAdd     89145396      9.41%     38.44% # Class of executed instruction. (Count)
system.timingCpu1.exec_context.thread_0.statExecutedInstType::FloatCmp            0      0.00%     38.44% # Class of executed instruction. (Count)
system.timingCpu1.exec_context.thread_0.statExecutedInstType::FloatCvt           48      0.00%     38.44% # Class of executed instruction. (Count)
system.timingCpu1.exec_context.thread_0.statExecutedInstType::FloatMult            0      0.00%     38.44% # Class of executed instruction. (Count)
system.timingCpu1.exec_context.thread_0.statExecutedInstType::FloatMultAcc            0      0.00%     38.44% # Class of executed instruction. (Count)
system.timingCpu1.exec_context.thread_0.statExecutedInstType::FloatDiv            0      0.00%     38.44% # Class of executed instruction. (Count)
system.timingCpu1.exec_context.thread_0.statExecutedInstType::FloatMisc            0      0.00%     38.44% # Class of executed instruction. (Count)
system.timingCpu1.exec_context.thread_0.statExecutedInstType::FloatSqrt            0      0.00%     38.44% # Class of executed instruction. (Count)
system.timingCpu1.exec_context.thread_0.statExecutedInstType::SimdAdd            0      0.00%     38.44% # Class of executed instruction. (Count)
system.timingCpu1.exec_context.thread_0.statExecutedInstType::SimdAddAcc            0      0.00%     38.44% # Class of executed instruction. (Count)
system.timingCpu1.exec_context.thread_0.statExecutedInstType::SimdAlu            0      0.00%     38.44% # Class of executed instruction. (Count)
system.timingCpu1.exec_context.thread_0.statExecutedInstType::SimdCmp            0      0.00%     38.44% # Class of executed instruction. (Count)
system.timingCpu1.exec_context.thread_0.statExecutedInstType::SimdCvt            0      0.00%     38.44% # Class of executed instruction. (Count)
system.timingCpu1.exec_context.thread_0.statExecutedInstType::SimdMisc            0      0.00%     38.44% # Class of executed instruction. (Count)
system.timingCpu1.exec_context.thread_0.statExecutedInstType::SimdMult            0      0.00%     38.44% # Class of executed instruction. (Count)
system.timingCpu1.exec_context.thread_0.statExecutedInstType::SimdMultAcc            0      0.00%     38.44% # Class of executed instruction. (Count)
system.timingCpu1.exec_context.thread_0.statExecutedInstType::SimdShift            0      0.00%     38.44% # Class of executed instruction. (Count)
system.timingCpu1.exec_context.thread_0.statExecutedInstType::SimdShiftAcc            0      0.00%     38.44% # Class of executed instruction. (Count)
system.timingCpu1.exec_context.thread_0.statExecutedInstType::SimdDiv            0      0.00%     38.44% # Class of executed instruction. (Count)
system.timingCpu1.exec_context.thread_0.statExecutedInstType::SimdSqrt            0      0.00%     38.44% # Class of executed instruction. (Count)
system.timingCpu1.exec_context.thread_0.statExecutedInstType::SimdFloatAdd    169598760     17.91%     56.35% # Class of executed instruction. (Count)
system.timingCpu1.exec_context.thread_0.statExecutedInstType::SimdFloatAlu            0      0.00%     56.35% # Class of executed instruction. (Count)
system.timingCpu1.exec_context.thread_0.statExecutedInstType::SimdFloatCmp            0      0.00%     56.35% # Class of executed instruction. (Count)
system.timingCpu1.exec_context.thread_0.statExecutedInstType::SimdFloatCvt            0      0.00%     56.35% # Class of executed instruction. (Count)
system.timingCpu1.exec_context.thread_0.statExecutedInstType::SimdFloatDiv      2013182      0.21%     56.57% # Class of executed instruction. (Count)
system.timingCpu1.exec_context.thread_0.statExecutedInstType::SimdFloatMisc            0      0.00%     56.57% # Class of executed instruction. (Count)
system.timingCpu1.exec_context.thread_0.statExecutedInstType::SimdFloatMult    127946090     13.51%     70.08% # Class of executed instruction. (Count)
system.timingCpu1.exec_context.thread_0.statExecutedInstType::SimdFloatMultAcc            0      0.00%     70.08% # Class of executed instruction. (Count)
system.timingCpu1.exec_context.thread_0.statExecutedInstType::SimdFloatSqrt            0      0.00%     70.08% # Class of executed instruction. (Count)
system.timingCpu1.exec_context.thread_0.statExecutedInstType::SimdReduceAdd            0      0.00%     70.08% # Class of executed instruction. (Count)
system.timingCpu1.exec_context.thread_0.statExecutedInstType::SimdReduceAlu            0      0.00%     70.08% # Class of executed instruction. (Count)
system.timingCpu1.exec_context.thread_0.statExecutedInstType::SimdReduceCmp            0      0.00%     70.08% # Class of executed instruction. (Count)
system.timingCpu1.exec_context.thread_0.statExecutedInstType::SimdFloatReduceAdd            0      0.00%     70.08% # Class of executed instruction. (Count)
system.timingCpu1.exec_context.thread_0.statExecutedInstType::SimdFloatReduceCmp            0      0.00%     70.08% # Class of executed instruction. (Count)
system.timingCpu1.exec_context.thread_0.statExecutedInstType::SimdAes            0      0.00%     70.08% # Class of executed instruction. (Count)
system.timingCpu1.exec_context.thread_0.statExecutedInstType::SimdAesMix            0      0.00%     70.08% # Class of executed instruction. (Count)
system.timingCpu1.exec_context.thread_0.statExecutedInstType::SimdSha1Hash            0      0.00%     70.08% # Class of executed instruction. (Count)
system.timingCpu1.exec_context.thread_0.statExecutedInstType::SimdSha1Hash2            0      0.00%     70.08% # Class of executed instruction. (Count)
system.timingCpu1.exec_context.thread_0.statExecutedInstType::SimdSha256Hash            0      0.00%     70.08% # Class of executed instruction. (Count)
system.timingCpu1.exec_context.thread_0.statExecutedInstType::SimdSha256Hash2            0      0.00%     70.08% # Class of executed instruction. (Count)
system.timingCpu1.exec_context.thread_0.statExecutedInstType::SimdShaSigma2            0      0.00%     70.08% # Class of executed instruction. (Count)
system.timingCpu1.exec_context.thread_0.statExecutedInstType::SimdShaSigma3            0      0.00%     70.08% # Class of executed instruction. (Count)
system.timingCpu1.exec_context.thread_0.statExecutedInstType::SimdPredAlu            0      0.00%     70.08% # Class of executed instruction. (Count)
system.timingCpu1.exec_context.thread_0.statExecutedInstType::MemRead      1362008      0.14%     70.22% # Class of executed instruction. (Count)
system.timingCpu1.exec_context.thread_0.statExecutedInstType::MemWrite       709957      0.07%     70.30% # Class of executed instruction. (Count)
system.timingCpu1.exec_context.thread_0.statExecutedInstType::FloatMemRead    196498210     20.75%     91.05% # Class of executed instruction. (Count)
system.timingCpu1.exec_context.thread_0.statExecutedInstType::FloatMemWrite     84780895      8.95%    100.00% # Class of executed instruction. (Count)
system.timingCpu1.exec_context.thread_0.statExecutedInstType::IprAccess            0      0.00%    100.00% # Class of executed instruction. (Count)
system.timingCpu1.exec_context.thread_0.statExecutedInstType::InstPrefetch            0      0.00%    100.00% # Class of executed instruction. (Count)
system.timingCpu1.exec_context.thread_0.statExecutedInstType::total    946952922                       # Class of executed instruction. (Count)
system.timingCpu1.mmu.dtb.rdAccesses        197910597                       # TLB accesses on read requests (Count)
system.timingCpu1.mmu.dtb.wrAccesses         85498981                       # TLB accesses on write requests (Count)
system.timingCpu1.mmu.dtb.rdMisses              50602                       # TLB misses on read requests (Count)
system.timingCpu1.mmu.dtb.wrMisses               8209                       # TLB misses on write requests (Count)
system.timingCpu1.mmu.dtb.walker.power_state.pwrStateResidencyTicks::UNDEFINED 22309888108250                       # Cumulative time (in ticks) in various power states (Tick)
system.timingCpu1.mmu.itb.rdAccesses                0                       # TLB accesses on read requests (Count)
system.timingCpu1.mmu.itb.wrAccesses        910970658                       # TLB accesses on write requests (Count)
system.timingCpu1.mmu.itb.rdMisses                  0                       # TLB misses on read requests (Count)
system.timingCpu1.mmu.itb.wrMisses               2698                       # TLB misses on write requests (Count)
system.timingCpu1.mmu.itb.walker.power_state.pwrStateResidencyTicks::UNDEFINED 22309888108250                       # Cumulative time (in ticks) in various power states (Tick)
system.timingCpu1.power_state.pwrStateResidencyTicks::OFF 22309888108250                       # Cumulative time (in ticks) in various power states (Tick)
system.timingCpu1.thread_0.numInsts                 0                       # Number of Instructions committed (Count)
system.timingCpu1.thread_0.numOps                   0                       # Number of Ops committed (Count)
system.timingCpu1.thread_0.numMemRefs               0                       # Number of Memory References (Count)
system.workload.inst.arm                            0                       # number of arm instructions executed (Count)
system.workload.inst.quiesce                        0                       # number of quiesce instructions executed (Count)

---------- End Simulation Statistics   ----------
