
---------- Begin Simulation Statistics ----------
simSeconds                                   0.097766                       # Number of seconds simulated (Second)
simTicks                                  97765544501                       # Number of ticks simulated (Tick)
finalTick                                165662089465001                       # Number of ticks from beginning of simulation (restored from checkpoints and never reset) (Tick)
simFreq                                  1000000000000                       # The number of ticks per simulated second ((Tick/Second))
hostSeconds                                    343.36                       # Real time elapsed on the host (Second)
hostTickRate                                284734197                       # The number of ticks simulated per host second (ticks/s) ((Tick/Second))
hostMemory                                    7393392                       # Number of bytes of host memory used (Byte)
simInsts                                  38447635504                       # Number of instructions simulated (Count)
simOps                                    38506176559                       # Number of ops (including micro ops) simulated (Count)
hostInstRate                                111975565                       # Simulator instruction rate (inst/s) ((Count/Second))
hostOpRate                                  112146057                       # Simulator op (including micro ops) rate (op/s) ((Count/Second))
system.work_item_type0::samples                     1                       # Run time stat forwork_item_type0 (Unspecified)
system.work_item_type0::mean              97765544501                       # Run time stat forwork_item_type0 (Unspecified)
system.work_item_type0::gmean            97765544501.000061                       # Run time stat forwork_item_type0 (Unspecified)
system.work_item_type0::stdev                     nan                       # Run time stat forwork_item_type0 (Unspecified)
system.work_item_type0::0-8.58993e+09               0      0.00%      0.00% # Run time stat forwork_item_type0 (Unspecified)
system.work_item_type0::8.58993e+09-1.71799e+10            0      0.00%      0.00% # Run time stat forwork_item_type0 (Unspecified)
system.work_item_type0::1.71799e+10-2.57698e+10            0      0.00%      0.00% # Run time stat forwork_item_type0 (Unspecified)
system.work_item_type0::2.57698e+10-3.43597e+10            0      0.00%      0.00% # Run time stat forwork_item_type0 (Unspecified)
system.work_item_type0::3.43597e+10-4.29497e+10            0      0.00%      0.00% # Run time stat forwork_item_type0 (Unspecified)
system.work_item_type0::4.29497e+10-5.15396e+10            0      0.00%      0.00% # Run time stat forwork_item_type0 (Unspecified)
system.work_item_type0::5.15396e+10-6.01295e+10            0      0.00%      0.00% # Run time stat forwork_item_type0 (Unspecified)
system.work_item_type0::6.01295e+10-6.87195e+10            0      0.00%      0.00% # Run time stat forwork_item_type0 (Unspecified)
system.work_item_type0::6.87195e+10-7.73094e+10            0      0.00%      0.00% # Run time stat forwork_item_type0 (Unspecified)
system.work_item_type0::7.73094e+10-8.58993e+10            0      0.00%      0.00% # Run time stat forwork_item_type0 (Unspecified)
system.work_item_type0::8.58993e+10-9.44893e+10            0      0.00%      0.00% # Run time stat forwork_item_type0 (Unspecified)
system.work_item_type0::9.44893e+10-1.03079e+11            1    100.00%    100.00% # Run time stat forwork_item_type0 (Unspecified)
system.work_item_type0::1.03079e+11-1.11669e+11            0      0.00%    100.00% # Run time stat forwork_item_type0 (Unspecified)
system.work_item_type0::1.11669e+11-1.20259e+11            0      0.00%    100.00% # Run time stat forwork_item_type0 (Unspecified)
system.work_item_type0::1.20259e+11-1.28849e+11            0      0.00%    100.00% # Run time stat forwork_item_type0 (Unspecified)
system.work_item_type0::1.28849e+11-1.37439e+11            0      0.00%    100.00% # Run time stat forwork_item_type0 (Unspecified)
system.work_item_type0::1.37439e+11-1.46029e+11            0      0.00%    100.00% # Run time stat forwork_item_type0 (Unspecified)
system.work_item_type0::1.46029e+11-1.54619e+11            0      0.00%    100.00% # Run time stat forwork_item_type0 (Unspecified)
system.work_item_type0::1.54619e+11-1.63209e+11            0      0.00%    100.00% # Run time stat forwork_item_type0 (Unspecified)
system.work_item_type0::1.63209e+11-1.71799e+11            0      0.00%    100.00% # Run time stat forwork_item_type0 (Unspecified)
system.work_item_type0::total                       1                       # Run time stat forwork_item_type0 (Unspecified)
system.atomicCpu0.numCycles                         0                       # Number of cpu cycles simulated (Cycle)
system.atomicCpu0.numWorkItemsStarted               0                       # Number of work items this cpu started (Count)
system.atomicCpu0.numWorkItemsCompleted             0                       # Number of work items this cpu completed (Count)
system.atomicCpu0.exec_context.thread_0.numInsts            0                       # Number of instructions committed (Count)
system.atomicCpu0.exec_context.thread_0.numOps            0                       # Number of ops (including micro ops) committed (Count)
system.atomicCpu0.exec_context.thread_0.numIntAluAccesses            0                       # Number of integer alu accesses (Count)
system.atomicCpu0.exec_context.thread_0.numFpAluAccesses            0                       # Number of float alu accesses (Count)
system.atomicCpu0.exec_context.thread_0.numVecAluAccesses            0                       # Number of vector alu accesses (Count)
system.atomicCpu0.exec_context.thread_0.numCallsReturns            0                       # Number of times a function call or return occured (Count)
system.atomicCpu0.exec_context.thread_0.numCondCtrlInsts            0                       # Number of instructions that are conditional controls (Count)
system.atomicCpu0.exec_context.thread_0.numIntInsts            0                       # Number of integer instructions (Count)
system.atomicCpu0.exec_context.thread_0.numFpInsts            0                       # Number of float instructions (Count)
system.atomicCpu0.exec_context.thread_0.numVecInsts            0                       # Number of vector instructions (Count)
system.atomicCpu0.exec_context.thread_0.numIntRegReads            0                       # Number of times the integer registers were read (Count)
system.atomicCpu0.exec_context.thread_0.numIntRegWrites            0                       # Number of times the integer registers were written (Count)
system.atomicCpu0.exec_context.thread_0.numFpRegReads            0                       # Number of times the floating registers were read (Count)
system.atomicCpu0.exec_context.thread_0.numFpRegWrites            0                       # Number of times the floating registers were written (Count)
system.atomicCpu0.exec_context.thread_0.numVecRegReads            0                       # Number of times the vector registers were read (Count)
system.atomicCpu0.exec_context.thread_0.numVecRegWrites            0                       # Number of times the vector registers were written (Count)
system.atomicCpu0.exec_context.thread_0.numVecPredRegReads            0                       # Number of times the predicate registers were read (Count)
system.atomicCpu0.exec_context.thread_0.numVecPredRegWrites            0                       # Number of times the predicate registers were written (Count)
system.atomicCpu0.exec_context.thread_0.numMiscRegReads            0                       # Number of times the Misc registers were read (Count)
system.atomicCpu0.exec_context.thread_0.numMiscRegWrites            0                       # Number of times the Misc registers were written (Count)
system.atomicCpu0.exec_context.thread_0.numMemRefs            0                       # Number of memory refs (Count)
system.atomicCpu0.exec_context.thread_0.numLoadInsts            0                       # Number of load instructions (Count)
system.atomicCpu0.exec_context.thread_0.numStoreInsts            0                       # Number of store instructions (Count)
system.atomicCpu0.exec_context.thread_0.numIdleCycles            0                       # Number of idle cycles (Cycle)
system.atomicCpu0.exec_context.thread_0.numBusyCycles            0                       # Number of busy cycles (Cycle)
system.atomicCpu0.exec_context.thread_0.notIdleFraction            0                       # Percentage of non-idle cycles (Ratio)
system.atomicCpu0.exec_context.thread_0.idleFraction            1                       # Percentage of idle cycles (Ratio)
system.atomicCpu0.exec_context.thread_0.statExecutedInstType::No_OpClass            0                       # Class of executed instruction. (Count)
system.atomicCpu0.exec_context.thread_0.statExecutedInstType::IntAlu            0                       # Class of executed instruction. (Count)
system.atomicCpu0.exec_context.thread_0.statExecutedInstType::IntMult            0                       # Class of executed instruction. (Count)
system.atomicCpu0.exec_context.thread_0.statExecutedInstType::IntDiv            0                       # Class of executed instruction. (Count)
system.atomicCpu0.exec_context.thread_0.statExecutedInstType::FloatAdd            0                       # Class of executed instruction. (Count)
system.atomicCpu0.exec_context.thread_0.statExecutedInstType::FloatCmp            0                       # Class of executed instruction. (Count)
system.atomicCpu0.exec_context.thread_0.statExecutedInstType::FloatCvt            0                       # Class of executed instruction. (Count)
system.atomicCpu0.exec_context.thread_0.statExecutedInstType::FloatMult            0                       # Class of executed instruction. (Count)
system.atomicCpu0.exec_context.thread_0.statExecutedInstType::FloatMultAcc            0                       # Class of executed instruction. (Count)
system.atomicCpu0.exec_context.thread_0.statExecutedInstType::FloatDiv            0                       # Class of executed instruction. (Count)
system.atomicCpu0.exec_context.thread_0.statExecutedInstType::FloatMisc            0                       # Class of executed instruction. (Count)
system.atomicCpu0.exec_context.thread_0.statExecutedInstType::FloatSqrt            0                       # Class of executed instruction. (Count)
system.atomicCpu0.exec_context.thread_0.statExecutedInstType::SimdAdd            0                       # Class of executed instruction. (Count)
system.atomicCpu0.exec_context.thread_0.statExecutedInstType::SimdAddAcc            0                       # Class of executed instruction. (Count)
system.atomicCpu0.exec_context.thread_0.statExecutedInstType::SimdAlu            0                       # Class of executed instruction. (Count)
system.atomicCpu0.exec_context.thread_0.statExecutedInstType::SimdCmp            0                       # Class of executed instruction. (Count)
system.atomicCpu0.exec_context.thread_0.statExecutedInstType::SimdCvt            0                       # Class of executed instruction. (Count)
system.atomicCpu0.exec_context.thread_0.statExecutedInstType::SimdMisc            0                       # Class of executed instruction. (Count)
system.atomicCpu0.exec_context.thread_0.statExecutedInstType::SimdMult            0                       # Class of executed instruction. (Count)
system.atomicCpu0.exec_context.thread_0.statExecutedInstType::SimdMultAcc            0                       # Class of executed instruction. (Count)
system.atomicCpu0.exec_context.thread_0.statExecutedInstType::SimdShift            0                       # Class of executed instruction. (Count)
system.atomicCpu0.exec_context.thread_0.statExecutedInstType::SimdShiftAcc            0                       # Class of executed instruction. (Count)
system.atomicCpu0.exec_context.thread_0.statExecutedInstType::SimdDiv            0                       # Class of executed instruction. (Count)
system.atomicCpu0.exec_context.thread_0.statExecutedInstType::SimdSqrt            0                       # Class of executed instruction. (Count)
system.atomicCpu0.exec_context.thread_0.statExecutedInstType::SimdFloatAdd            0                       # Class of executed instruction. (Count)
system.atomicCpu0.exec_context.thread_0.statExecutedInstType::SimdFloatAlu            0                       # Class of executed instruction. (Count)
system.atomicCpu0.exec_context.thread_0.statExecutedInstType::SimdFloatCmp            0                       # Class of executed instruction. (Count)
system.atomicCpu0.exec_context.thread_0.statExecutedInstType::SimdFloatCvt            0                       # Class of executed instruction. (Count)
system.atomicCpu0.exec_context.thread_0.statExecutedInstType::SimdFloatDiv            0                       # Class of executed instruction. (Count)
system.atomicCpu0.exec_context.thread_0.statExecutedInstType::SimdFloatMisc            0                       # Class of executed instruction. (Count)
system.atomicCpu0.exec_context.thread_0.statExecutedInstType::SimdFloatMult            0                       # Class of executed instruction. (Count)
system.atomicCpu0.exec_context.thread_0.statExecutedInstType::SimdFloatMultAcc            0                       # Class of executed instruction. (Count)
system.atomicCpu0.exec_context.thread_0.statExecutedInstType::SimdFloatSqrt            0                       # Class of executed instruction. (Count)
system.atomicCpu0.exec_context.thread_0.statExecutedInstType::SimdReduceAdd            0                       # Class of executed instruction. (Count)
system.atomicCpu0.exec_context.thread_0.statExecutedInstType::SimdReduceAlu            0                       # Class of executed instruction. (Count)
system.atomicCpu0.exec_context.thread_0.statExecutedInstType::SimdReduceCmp            0                       # Class of executed instruction. (Count)
system.atomicCpu0.exec_context.thread_0.statExecutedInstType::SimdFloatReduceAdd            0                       # Class of executed instruction. (Count)
system.atomicCpu0.exec_context.thread_0.statExecutedInstType::SimdFloatReduceCmp            0                       # Class of executed instruction. (Count)
system.atomicCpu0.exec_context.thread_0.statExecutedInstType::SimdAes            0                       # Class of executed instruction. (Count)
system.atomicCpu0.exec_context.thread_0.statExecutedInstType::SimdAesMix            0                       # Class of executed instruction. (Count)
system.atomicCpu0.exec_context.thread_0.statExecutedInstType::SimdSha1Hash            0                       # Class of executed instruction. (Count)
system.atomicCpu0.exec_context.thread_0.statExecutedInstType::SimdSha1Hash2            0                       # Class of executed instruction. (Count)
system.atomicCpu0.exec_context.thread_0.statExecutedInstType::SimdSha256Hash            0                       # Class of executed instruction. (Count)
system.atomicCpu0.exec_context.thread_0.statExecutedInstType::SimdSha256Hash2            0                       # Class of executed instruction. (Count)
system.atomicCpu0.exec_context.thread_0.statExecutedInstType::SimdShaSigma2            0                       # Class of executed instruction. (Count)
system.atomicCpu0.exec_context.thread_0.statExecutedInstType::SimdShaSigma3            0                       # Class of executed instruction. (Count)
system.atomicCpu0.exec_context.thread_0.statExecutedInstType::SimdPredAlu            0                       # Class of executed instruction. (Count)
system.atomicCpu0.exec_context.thread_0.statExecutedInstType::MemRead            0                       # Class of executed instruction. (Count)
system.atomicCpu0.exec_context.thread_0.statExecutedInstType::MemWrite            0                       # Class of executed instruction. (Count)
system.atomicCpu0.exec_context.thread_0.statExecutedInstType::FloatMemRead            0                       # Class of executed instruction. (Count)
system.atomicCpu0.exec_context.thread_0.statExecutedInstType::FloatMemWrite            0                       # Class of executed instruction. (Count)
system.atomicCpu0.exec_context.thread_0.statExecutedInstType::IprAccess            0                       # Class of executed instruction. (Count)
system.atomicCpu0.exec_context.thread_0.statExecutedInstType::InstPrefetch            0                       # Class of executed instruction. (Count)
system.atomicCpu0.exec_context.thread_0.statExecutedInstType::total            0                       # Class of executed instruction. (Count)
system.atomicCpu0.mmu.dtb.rdAccesses                0                       # TLB accesses on read requests (Count)
system.atomicCpu0.mmu.dtb.wrAccesses                0                       # TLB accesses on write requests (Count)
system.atomicCpu0.mmu.dtb.rdMisses                  0                       # TLB misses on read requests (Count)
system.atomicCpu0.mmu.dtb.wrMisses                  0                       # TLB misses on write requests (Count)
system.atomicCpu0.mmu.dtb.walker.power_state.pwrStateResidencyTicks::UNDEFINED 165662089465001                       # Cumulative time (in ticks) in various power states (Tick)
system.atomicCpu0.mmu.itb.rdAccesses                0                       # TLB accesses on read requests (Count)
system.atomicCpu0.mmu.itb.wrAccesses                0                       # TLB accesses on write requests (Count)
system.atomicCpu0.mmu.itb.rdMisses                  0                       # TLB misses on read requests (Count)
system.atomicCpu0.mmu.itb.wrMisses                  0                       # TLB misses on write requests (Count)
system.atomicCpu0.mmu.itb.walker.power_state.pwrStateResidencyTicks::UNDEFINED 165662089465001                       # Cumulative time (in ticks) in various power states (Tick)
system.atomicCpu0.power_state.pwrStateResidencyTicks::OFF 165662089465001                       # Cumulative time (in ticks) in various power states (Tick)
system.atomicCpu0.thread_0.numInsts                 0                       # Number of Instructions committed (Count)
system.atomicCpu0.thread_0.numOps                   0                       # Number of Ops committed (Count)
system.atomicCpu0.thread_0.numMemRefs               0                       # Number of Memory References (Count)
system.atomicCpu1.numCycles                         0                       # Number of cpu cycles simulated (Cycle)
system.atomicCpu1.numWorkItemsStarted               0                       # Number of work items this cpu started (Count)
system.atomicCpu1.numWorkItemsCompleted             0                       # Number of work items this cpu completed (Count)
system.atomicCpu1.exec_context.thread_0.numInsts            0                       # Number of instructions committed (Count)
system.atomicCpu1.exec_context.thread_0.numOps            0                       # Number of ops (including micro ops) committed (Count)
system.atomicCpu1.exec_context.thread_0.numIntAluAccesses            0                       # Number of integer alu accesses (Count)
system.atomicCpu1.exec_context.thread_0.numFpAluAccesses            0                       # Number of float alu accesses (Count)
system.atomicCpu1.exec_context.thread_0.numVecAluAccesses            0                       # Number of vector alu accesses (Count)
system.atomicCpu1.exec_context.thread_0.numCallsReturns            0                       # Number of times a function call or return occured (Count)
system.atomicCpu1.exec_context.thread_0.numCondCtrlInsts            0                       # Number of instructions that are conditional controls (Count)
system.atomicCpu1.exec_context.thread_0.numIntInsts            0                       # Number of integer instructions (Count)
system.atomicCpu1.exec_context.thread_0.numFpInsts            0                       # Number of float instructions (Count)
system.atomicCpu1.exec_context.thread_0.numVecInsts            0                       # Number of vector instructions (Count)
system.atomicCpu1.exec_context.thread_0.numIntRegReads            0                       # Number of times the integer registers were read (Count)
system.atomicCpu1.exec_context.thread_0.numIntRegWrites            0                       # Number of times the integer registers were written (Count)
system.atomicCpu1.exec_context.thread_0.numFpRegReads            0                       # Number of times the floating registers were read (Count)
system.atomicCpu1.exec_context.thread_0.numFpRegWrites            0                       # Number of times the floating registers were written (Count)
system.atomicCpu1.exec_context.thread_0.numVecRegReads            0                       # Number of times the vector registers were read (Count)
system.atomicCpu1.exec_context.thread_0.numVecRegWrites            0                       # Number of times the vector registers were written (Count)
system.atomicCpu1.exec_context.thread_0.numVecPredRegReads            0                       # Number of times the predicate registers were read (Count)
system.atomicCpu1.exec_context.thread_0.numVecPredRegWrites            0                       # Number of times the predicate registers were written (Count)
system.atomicCpu1.exec_context.thread_0.numMiscRegReads            0                       # Number of times the Misc registers were read (Count)
system.atomicCpu1.exec_context.thread_0.numMiscRegWrites            0                       # Number of times the Misc registers were written (Count)
system.atomicCpu1.exec_context.thread_0.numMemRefs            0                       # Number of memory refs (Count)
system.atomicCpu1.exec_context.thread_0.numLoadInsts            0                       # Number of load instructions (Count)
system.atomicCpu1.exec_context.thread_0.numStoreInsts            0                       # Number of store instructions (Count)
system.atomicCpu1.exec_context.thread_0.numIdleCycles            0                       # Number of idle cycles (Cycle)
system.atomicCpu1.exec_context.thread_0.numBusyCycles            0                       # Number of busy cycles (Cycle)
system.atomicCpu1.exec_context.thread_0.notIdleFraction            0                       # Percentage of non-idle cycles (Ratio)
system.atomicCpu1.exec_context.thread_0.idleFraction            1                       # Percentage of idle cycles (Ratio)
system.atomicCpu1.exec_context.thread_0.statExecutedInstType::No_OpClass            0                       # Class of executed instruction. (Count)
system.atomicCpu1.exec_context.thread_0.statExecutedInstType::IntAlu            0                       # Class of executed instruction. (Count)
system.atomicCpu1.exec_context.thread_0.statExecutedInstType::IntMult            0                       # Class of executed instruction. (Count)
system.atomicCpu1.exec_context.thread_0.statExecutedInstType::IntDiv            0                       # Class of executed instruction. (Count)
system.atomicCpu1.exec_context.thread_0.statExecutedInstType::FloatAdd            0                       # Class of executed instruction. (Count)
system.atomicCpu1.exec_context.thread_0.statExecutedInstType::FloatCmp            0                       # Class of executed instruction. (Count)
system.atomicCpu1.exec_context.thread_0.statExecutedInstType::FloatCvt            0                       # Class of executed instruction. (Count)
system.atomicCpu1.exec_context.thread_0.statExecutedInstType::FloatMult            0                       # Class of executed instruction. (Count)
system.atomicCpu1.exec_context.thread_0.statExecutedInstType::FloatMultAcc            0                       # Class of executed instruction. (Count)
system.atomicCpu1.exec_context.thread_0.statExecutedInstType::FloatDiv            0                       # Class of executed instruction. (Count)
system.atomicCpu1.exec_context.thread_0.statExecutedInstType::FloatMisc            0                       # Class of executed instruction. (Count)
system.atomicCpu1.exec_context.thread_0.statExecutedInstType::FloatSqrt            0                       # Class of executed instruction. (Count)
system.atomicCpu1.exec_context.thread_0.statExecutedInstType::SimdAdd            0                       # Class of executed instruction. (Count)
system.atomicCpu1.exec_context.thread_0.statExecutedInstType::SimdAddAcc            0                       # Class of executed instruction. (Count)
system.atomicCpu1.exec_context.thread_0.statExecutedInstType::SimdAlu            0                       # Class of executed instruction. (Count)
system.atomicCpu1.exec_context.thread_0.statExecutedInstType::SimdCmp            0                       # Class of executed instruction. (Count)
system.atomicCpu1.exec_context.thread_0.statExecutedInstType::SimdCvt            0                       # Class of executed instruction. (Count)
system.atomicCpu1.exec_context.thread_0.statExecutedInstType::SimdMisc            0                       # Class of executed instruction. (Count)
system.atomicCpu1.exec_context.thread_0.statExecutedInstType::SimdMult            0                       # Class of executed instruction. (Count)
system.atomicCpu1.exec_context.thread_0.statExecutedInstType::SimdMultAcc            0                       # Class of executed instruction. (Count)
system.atomicCpu1.exec_context.thread_0.statExecutedInstType::SimdShift            0                       # Class of executed instruction. (Count)
system.atomicCpu1.exec_context.thread_0.statExecutedInstType::SimdShiftAcc            0                       # Class of executed instruction. (Count)
system.atomicCpu1.exec_context.thread_0.statExecutedInstType::SimdDiv            0                       # Class of executed instruction. (Count)
system.atomicCpu1.exec_context.thread_0.statExecutedInstType::SimdSqrt            0                       # Class of executed instruction. (Count)
system.atomicCpu1.exec_context.thread_0.statExecutedInstType::SimdFloatAdd            0                       # Class of executed instruction. (Count)
system.atomicCpu1.exec_context.thread_0.statExecutedInstType::SimdFloatAlu            0                       # Class of executed instruction. (Count)
system.atomicCpu1.exec_context.thread_0.statExecutedInstType::SimdFloatCmp            0                       # Class of executed instruction. (Count)
system.atomicCpu1.exec_context.thread_0.statExecutedInstType::SimdFloatCvt            0                       # Class of executed instruction. (Count)
system.atomicCpu1.exec_context.thread_0.statExecutedInstType::SimdFloatDiv            0                       # Class of executed instruction. (Count)
system.atomicCpu1.exec_context.thread_0.statExecutedInstType::SimdFloatMisc            0                       # Class of executed instruction. (Count)
system.atomicCpu1.exec_context.thread_0.statExecutedInstType::SimdFloatMult            0                       # Class of executed instruction. (Count)
system.atomicCpu1.exec_context.thread_0.statExecutedInstType::SimdFloatMultAcc            0                       # Class of executed instruction. (Count)
system.atomicCpu1.exec_context.thread_0.statExecutedInstType::SimdFloatSqrt            0                       # Class of executed instruction. (Count)
system.atomicCpu1.exec_context.thread_0.statExecutedInstType::SimdReduceAdd            0                       # Class of executed instruction. (Count)
system.atomicCpu1.exec_context.thread_0.statExecutedInstType::SimdReduceAlu            0                       # Class of executed instruction. (Count)
system.atomicCpu1.exec_context.thread_0.statExecutedInstType::SimdReduceCmp            0                       # Class of executed instruction. (Count)
system.atomicCpu1.exec_context.thread_0.statExecutedInstType::SimdFloatReduceAdd            0                       # Class of executed instruction. (Count)
system.atomicCpu1.exec_context.thread_0.statExecutedInstType::SimdFloatReduceCmp            0                       # Class of executed instruction. (Count)
system.atomicCpu1.exec_context.thread_0.statExecutedInstType::SimdAes            0                       # Class of executed instruction. (Count)
system.atomicCpu1.exec_context.thread_0.statExecutedInstType::SimdAesMix            0                       # Class of executed instruction. (Count)
system.atomicCpu1.exec_context.thread_0.statExecutedInstType::SimdSha1Hash            0                       # Class of executed instruction. (Count)
system.atomicCpu1.exec_context.thread_0.statExecutedInstType::SimdSha1Hash2            0                       # Class of executed instruction. (Count)
system.atomicCpu1.exec_context.thread_0.statExecutedInstType::SimdSha256Hash            0                       # Class of executed instruction. (Count)
system.atomicCpu1.exec_context.thread_0.statExecutedInstType::SimdSha256Hash2            0                       # Class of executed instruction. (Count)
system.atomicCpu1.exec_context.thread_0.statExecutedInstType::SimdShaSigma2            0                       # Class of executed instruction. (Count)
system.atomicCpu1.exec_context.thread_0.statExecutedInstType::SimdShaSigma3            0                       # Class of executed instruction. (Count)
system.atomicCpu1.exec_context.thread_0.statExecutedInstType::SimdPredAlu            0                       # Class of executed instruction. (Count)
system.atomicCpu1.exec_context.thread_0.statExecutedInstType::MemRead            0                       # Class of executed instruction. (Count)
system.atomicCpu1.exec_context.thread_0.statExecutedInstType::MemWrite            0                       # Class of executed instruction. (Count)
system.atomicCpu1.exec_context.thread_0.statExecutedInstType::FloatMemRead            0                       # Class of executed instruction. (Count)
system.atomicCpu1.exec_context.thread_0.statExecutedInstType::FloatMemWrite            0                       # Class of executed instruction. (Count)
system.atomicCpu1.exec_context.thread_0.statExecutedInstType::IprAccess            0                       # Class of executed instruction. (Count)
system.atomicCpu1.exec_context.thread_0.statExecutedInstType::InstPrefetch            0                       # Class of executed instruction. (Count)
system.atomicCpu1.exec_context.thread_0.statExecutedInstType::total            0                       # Class of executed instruction. (Count)
system.atomicCpu1.mmu.dtb.rdAccesses                0                       # TLB accesses on read requests (Count)
system.atomicCpu1.mmu.dtb.wrAccesses                0                       # TLB accesses on write requests (Count)
system.atomicCpu1.mmu.dtb.rdMisses                  0                       # TLB misses on read requests (Count)
system.atomicCpu1.mmu.dtb.wrMisses                  0                       # TLB misses on write requests (Count)
system.atomicCpu1.mmu.dtb.walker.power_state.pwrStateResidencyTicks::UNDEFINED 165662089465001                       # Cumulative time (in ticks) in various power states (Tick)
system.atomicCpu1.mmu.itb.rdAccesses                0                       # TLB accesses on read requests (Count)
system.atomicCpu1.mmu.itb.wrAccesses                0                       # TLB accesses on write requests (Count)
system.atomicCpu1.mmu.itb.rdMisses                  0                       # TLB misses on read requests (Count)
system.atomicCpu1.mmu.itb.wrMisses                  0                       # TLB misses on write requests (Count)
system.atomicCpu1.mmu.itb.walker.power_state.pwrStateResidencyTicks::UNDEFINED 165662089465001                       # Cumulative time (in ticks) in various power states (Tick)
system.atomicCpu1.power_state.pwrStateResidencyTicks::OFF 165662089465001                       # Cumulative time (in ticks) in various power states (Tick)
system.atomicCpu1.thread_0.numInsts                 0                       # Number of Instructions committed (Count)
system.atomicCpu1.thread_0.numOps                   0                       # Number of Ops committed (Count)
system.atomicCpu1.thread_0.numMemRefs               0                       # Number of Memory References (Count)
system.caches.delayHistogram::bucket_size          256                       # delay histogram for all message (Unspecified)
system.caches.delayHistogram::max_bucket         2559                       # delay histogram for all message (Unspecified)
system.caches.delayHistogram::samples         8779892                       # delay histogram for all message (Unspecified)
system.caches.delayHistogram::mean           0.174680                       # delay histogram for all message (Unspecified)
system.caches.delayHistogram::stdev          1.372422                       # delay histogram for all message (Unspecified)
system.caches.delayHistogram             |     8779885    100.00%    100.00% |           2      0.00%    100.00% |           4      0.00%    100.00% |           0      0.00%    100.00% |           0      0.00%    100.00% |           0      0.00%    100.00% |           1      0.00%    100.00% |           0      0.00%    100.00% |           0      0.00%    100.00% |           0      0.00%    100.00% # delay histogram for all message (Unspecified)
system.caches.delayHistogram::total           8779892                       # delay histogram for all message (Unspecified)
system.caches.m_outstandReqHistSeqr::bucket_size            1                       (Unspecified)
system.caches.m_outstandReqHistSeqr::max_bucket            9                       (Unspecified)
system.caches.m_outstandReqHistSeqr::samples    134534552                       (Unspecified)
system.caches.m_outstandReqHistSeqr::mean     1.000005                       (Unspecified)
system.caches.m_outstandReqHistSeqr::gmean     1.000004                       (Unspecified)
system.caches.m_outstandReqHistSeqr::stdev     0.002297                       (Unspecified)
system.caches.m_outstandReqHistSeqr      |           0      0.00%      0.00% |   134533842    100.00%    100.00% |         710      0.00%    100.00% |           0      0.00%    100.00% |           0      0.00%    100.00% |           0      0.00%    100.00% |           0      0.00%    100.00% |           0      0.00%    100.00% |           0      0.00%    100.00% |           0      0.00%    100.00% (Unspecified)
system.caches.m_outstandReqHistSeqr::total    134534552                       (Unspecified)
system.caches.m_latencyHistSeqr::bucket_size          512                       (Unspecified)
system.caches.m_latencyHistSeqr::max_bucket         5119                       (Unspecified)
system.caches.m_latencyHistSeqr::samples    134534550                       (Unspecified)
system.caches.m_latencyHistSeqr::mean        4.766124                       (Unspecified)
system.caches.m_latencyHistSeqr::gmean       1.057762                       (Unspecified)
system.caches.m_latencyHistSeqr::stdev      45.125758                       (Unspecified)
system.caches.m_latencyHistSeqr          |   134329235     99.85%     99.85% |      181898      0.14%     99.98% |        5110      0.00%     99.99% |       17161      0.01%    100.00% |        1096      0.00%    100.00% |          50      0.00%    100.00% |           0      0.00%    100.00% |           0      0.00%    100.00% |           0      0.00%    100.00% |           0      0.00%    100.00% (Unspecified)
system.caches.m_latencyHistSeqr::total      134534550                       (Unspecified)
system.caches.m_hitLatencyHistSeqr::bucket_size            1                       (Unspecified)
system.caches.m_hitLatencyHistSeqr::max_bucket            9                       (Unspecified)
system.caches.m_hitLatencyHistSeqr::samples    133163741                       (Unspecified)
system.caches.m_hitLatencyHistSeqr::mean            1                       (Unspecified)
system.caches.m_hitLatencyHistSeqr::gmean            1                       (Unspecified)
system.caches.m_hitLatencyHistSeqr       |           0      0.00%      0.00% |   133163741    100.00%    100.00% |           0      0.00%    100.00% |           0      0.00%    100.00% |           0      0.00%    100.00% |           0      0.00%    100.00% |           0      0.00%    100.00% |           0      0.00%    100.00% |           0      0.00%    100.00% |           0      0.00%    100.00% (Unspecified)
system.caches.m_hitLatencyHistSeqr::total    133163741                       (Unspecified)
system.caches.m_missLatencyHistSeqr::bucket_size          512                       (Unspecified)
system.caches.m_missLatencyHistSeqr::max_bucket         5119                       (Unspecified)
system.caches.m_missLatencyHistSeqr::samples      1370809                       (Unspecified)
system.caches.m_missLatencyHistSeqr::mean   370.616597                       (Unspecified)
system.caches.m_missLatencyHistSeqr::gmean   247.449563                       (Unspecified)
system.caches.m_missLatencyHistSeqr::stdev   254.217312                       (Unspecified)
system.caches.m_missLatencyHistSeqr      |     1165494     85.02%     85.02% |      181898     13.27%     98.29% |        5110      0.37%     98.66% |       17161      1.25%     99.92% |        1096      0.08%    100.00% |          50      0.00%    100.00% |           0      0.00%    100.00% |           0      0.00%    100.00% |           0      0.00%    100.00% |           0      0.00%    100.00% (Unspecified)
system.caches.m_missLatencyHistSeqr::total      1370809                       (Unspecified)
system.caches.delayVCHist.vnet_0::bucket_size          256                       # delay histogram for vnet_0 (Unspecified)
system.caches.delayVCHist.vnet_0::max_bucket         2559                       # delay histogram for vnet_0 (Unspecified)
system.caches.delayVCHist.vnet_0::samples      3859074                       # delay histogram for vnet_0 (Unspecified)
system.caches.delayVCHist.vnet_0::mean       0.396407                       # delay histogram for vnet_0 (Unspecified)
system.caches.delayVCHist.vnet_0::stdev      2.047500                       # delay histogram for vnet_0 (Unspecified)
system.caches.delayVCHist.vnet_0         |     3859067    100.00%    100.00% |           2      0.00%    100.00% |           4      0.00%    100.00% |           0      0.00%    100.00% |           0      0.00%    100.00% |           0      0.00%    100.00% |           1      0.00%    100.00% |           0      0.00%    100.00% |           0      0.00%    100.00% |           0      0.00%    100.00% # delay histogram for vnet_0 (Unspecified)
system.caches.delayVCHist.vnet_0::total       3859074                       # delay histogram for vnet_0 (Unspecified)
system.caches.delayVCHist.vnet_1::bucket_size            1                       # delay histogram for vnet_1 (Unspecified)
system.caches.delayVCHist.vnet_1::max_bucket            9                       # delay histogram for vnet_1 (Unspecified)
system.caches.delayVCHist.vnet_1::samples      4828944                       # delay histogram for vnet_1 (Unspecified)
system.caches.delayVCHist.vnet_1::mean       0.000808                       # delay histogram for vnet_1 (Unspecified)
system.caches.delayVCHist.vnet_1::stdev      0.065220                       # delay histogram for vnet_1 (Unspecified)
system.caches.delayVCHist.vnet_1         |     4828069     99.98%     99.98% |           0      0.00%     99.98% |         239      0.00%     99.99% |           0      0.00%     99.99% |         276      0.01%     99.99% |           0      0.00%     99.99% |         281      0.01%    100.00% |           0      0.00%    100.00% |          79      0.00%    100.00% |           0      0.00%    100.00% # delay histogram for vnet_1 (Unspecified)
system.caches.delayVCHist.vnet_1::total       4828944                       # delay histogram for vnet_1 (Unspecified)
system.caches.delayVCHist.vnet_2::bucket_size            1                       # delay histogram for vnet_2 (Unspecified)
system.caches.delayVCHist.vnet_2::max_bucket            9                       # delay histogram for vnet_2 (Unspecified)
system.caches.delayVCHist.vnet_2::samples        91874                       # delay histogram for vnet_2 (Unspecified)
system.caches.delayVCHist.vnet_2::mean       0.000065                       # delay histogram for vnet_2 (Unspecified)
system.caches.delayVCHist.vnet_2::stdev      0.011429                       # delay histogram for vnet_2 (Unspecified)
system.caches.delayVCHist.vnet_2         |       91871    100.00%    100.00% |           0      0.00%    100.00% |           3      0.00%    100.00% |           0      0.00%    100.00% |           0      0.00%    100.00% |           0      0.00%    100.00% |           0      0.00%    100.00% |           0      0.00%    100.00% |           0      0.00%    100.00% |           0      0.00%    100.00% # delay histogram for vnet_2 (Unspecified)
system.caches.delayVCHist.vnet_2::total         91874                       # delay histogram for vnet_2 (Unspecified)
system.caches.L1Cache_Controller.Load    |    10198337     49.65%     49.65% |    10342251     50.35%    100.00% (Unspecified)
system.caches.L1Cache_Controller.Load::total     20540588                       (Unspecified)
system.caches.L1Cache_Controller.Ifetch  |    54190690     49.36%     49.36% |    55589876     50.64%    100.00% (Unspecified)
system.caches.L1Cache_Controller.Ifetch::total    109780566                       (Unspecified)
system.caches.L1Cache_Controller.Store   |     2137512     50.73%     50.73% |     2075885     49.27%    100.00% (Unspecified)
system.caches.L1Cache_Controller.Store::total      4213397                       (Unspecified)
system.caches.L1Cache_Controller.Inv     |       14904     46.98%     46.98% |       16822     53.02%    100.00% (Unspecified)
system.caches.L1Cache_Controller.Inv::total        31726                       (Unspecified)
system.caches.L1Cache_Controller.L1_Replacement |      644845     49.82%     49.82% |      649454     50.18%    100.00% (Unspecified)
system.caches.L1Cache_Controller.L1_Replacement::total      1294299                       (Unspecified)
system.caches.L1Cache_Controller.Fwd_GETX |       22589     49.87%     49.87% |       22709     50.13%    100.00% (Unspecified)
system.caches.L1Cache_Controller.Fwd_GETX::total        45298                       (Unspecified)
system.caches.L1Cache_Controller.Fwd_GETS |        8500     57.24%     57.24% |        6350     42.76%    100.00% (Unspecified)
system.caches.L1Cache_Controller.Fwd_GETS::total        14850                       (Unspecified)
system.caches.L1Cache_Controller.Data    |         888     99.89%     99.89% |           1      0.11%    100.00% (Unspecified)
system.caches.L1Cache_Controller.Data::total          889                       (Unspecified)
system.caches.L1Cache_Controller.Data_Exclusive |      579790     49.47%     49.47% |      592208     50.53%    100.00% (Unspecified)
system.caches.L1Cache_Controller.Data_Exclusive::total      1171998                       (Unspecified)
system.caches.L1Cache_Controller.DataS_fromL1 |        6350     42.76%     42.76% |        8500     57.24%    100.00% (Unspecified)
system.caches.L1Cache_Controller.DataS_fromL1::total        14850                       (Unspecified)
system.caches.L1Cache_Controller.Data_all_Acks |       93234     52.65%     52.65% |       83835     47.35%    100.00% (Unspecified)
system.caches.L1Cache_Controller.Data_all_Acks::total       177069                       (Unspecified)
system.caches.L1Cache_Controller.Ack     |        4212     70.16%     70.16% |        1791     29.84%    100.00% (Unspecified)
system.caches.L1Cache_Controller.Ack::total         6003                       (Unspecified)
system.caches.L1Cache_Controller.Ack_all |        5100     74.00%     74.00% |        1792     26.00%    100.00% (Unspecified)
system.caches.L1Cache_Controller.Ack_all::total         6892                       (Unspecified)
system.caches.L1Cache_Controller.WB_Ack  |      593788     49.62%     49.62% |      602826     50.38%    100.00% (Unspecified)
system.caches.L1Cache_Controller.WB_Ack::total      1196614                       (Unspecified)
system.caches.L1Cache_Controller.NP.Load |      612484     49.43%     49.43% |      626709     50.57%    100.00% (Unspecified)
system.caches.L1Cache_Controller.NP.Load::total      1239193                       (Unspecified)
system.caches.L1Cache_Controller.NP.Ifetch |       11784     69.44%     69.44% |        5187     30.56%    100.00% (Unspecified)
system.caches.L1Cache_Controller.NP.Ifetch::total        16971                       (Unspecified)
system.caches.L1Cache_Controller.NP.Store |       29281     52.73%     52.73% |       26248     47.27%    100.00% (Unspecified)
system.caches.L1Cache_Controller.NP.Store::total        55529                       (Unspecified)
system.caches.L1Cache_Controller.NP.Inv  |        6238     50.33%     50.33% |        6157     49.67%    100.00% (Unspecified)
system.caches.L1Cache_Controller.NP.Inv::total        12395                       (Unspecified)
system.caches.L1Cache_Controller.I.Load  |        3820     51.96%     51.96% |        3532     48.04%    100.00% (Unspecified)
system.caches.L1Cache_Controller.I.Load::total         7352                       (Unspecified)
system.caches.L1Cache_Controller.I.Ifetch |        1316     52.81%     52.81% |        1176     47.19%    100.00% (Unspecified)
system.caches.L1Cache_Controller.I.Ifetch::total         2492                       (Unspecified)
system.caches.L1Cache_Controller.I.Store |       21577     49.87%     49.87% |       21690     50.13%    100.00% (Unspecified)
system.caches.L1Cache_Controller.I.Store::total        43267                       (Unspecified)
system.caches.L1Cache_Controller.I.L1_Replacement |        4516     39.63%     39.63% |        6878     60.37%    100.00% (Unspecified)
system.caches.L1Cache_Controller.I.L1_Replacement::total        11394                       (Unspecified)
system.caches.L1Cache_Controller.S.Load  |     3517202     48.44%     48.44% |     3743840     51.56%    100.00% (Unspecified)
system.caches.L1Cache_Controller.S.Load::total      7261042                       (Unspecified)
system.caches.L1Cache_Controller.S.Ifetch |    54177590     49.36%     49.36% |    55583513     50.64%    100.00% (Unspecified)
system.caches.L1Cache_Controller.S.Ifetch::total    109761103                       (Unspecified)
system.caches.L1Cache_Controller.S.Store |        4213     70.15%     70.15% |        1793     29.85%    100.00% (Unspecified)
system.caches.L1Cache_Controller.S.Store::total         6006                       (Unspecified)
system.caches.L1Cache_Controller.S.Inv   |        6721     43.72%     43.72% |        8653     56.28%    100.00% (Unspecified)
system.caches.L1Cache_Controller.S.Inv::total        15374                       (Unspecified)
system.caches.L1Cache_Controller.S.L1_Replacement |       46541     53.93%     53.93% |       39750     46.07%    100.00% (Unspecified)
system.caches.L1Cache_Controller.S.L1_Replacement::total        86291                       (Unspecified)
system.caches.L1Cache_Controller.E.Load  |     4867715     49.01%     49.01% |     5063799     50.99%    100.00% (Unspecified)
system.caches.L1Cache_Controller.E.Load::total      9931514                       (Unspecified)
system.caches.L1Cache_Controller.E.Store |       65593     47.83%     47.83% |       71536     52.17%    100.00% (Unspecified)
system.caches.L1Cache_Controller.E.Store::total       137129                       (Unspecified)
system.caches.L1Cache_Controller.E.Inv   |        1655     49.07%     49.07% |        1718     50.93%    100.00% (Unspecified)
system.caches.L1Cache_Controller.E.Inv::total         3373                       (Unspecified)
system.caches.L1Cache_Controller.E.L1_Replacement |      502909     49.83%     49.83% |      506353     50.17%    100.00% (Unspecified)
system.caches.L1Cache_Controller.E.L1_Replacement::total      1009262                       (Unspecified)
system.caches.L1Cache_Controller.E.Fwd_GETX |           1      2.86%      2.86% |          34     97.14%    100.00% (Unspecified)
system.caches.L1Cache_Controller.E.Fwd_GETX::total           35                       (Unspecified)
system.caches.L1Cache_Controller.E.Fwd_GETS |        4750     50.53%     50.53% |        4651     49.47%    100.00% (Unspecified)
system.caches.L1Cache_Controller.E.Fwd_GETS::total         9401                       (Unspecified)
system.caches.L1Cache_Controller.M.Load  |     1197116     56.97%     56.97% |      904371     43.03%    100.00% (Unspecified)
system.caches.L1Cache_Controller.M.Load::total      2101487                       (Unspecified)
system.caches.L1Cache_Controller.M.Store |     2016848     50.78%     50.78% |     1954618     49.22%    100.00% (Unspecified)
system.caches.L1Cache_Controller.M.Store::total      3971466                       (Unspecified)
system.caches.L1Cache_Controller.M.Inv   |         289     49.74%     49.74% |         292     50.26%    100.00% (Unspecified)
system.caches.L1Cache_Controller.M.Inv::total          581                       (Unspecified)
system.caches.L1Cache_Controller.M.L1_Replacement |       90879     48.51%     48.51% |       96473     51.49%    100.00% (Unspecified)
system.caches.L1Cache_Controller.M.L1_Replacement::total       187352                       (Unspecified)
system.caches.L1Cache_Controller.M.Fwd_GETX |       22588     49.90%     49.90% |       22675     50.10%    100.00% (Unspecified)
system.caches.L1Cache_Controller.M.Fwd_GETX::total        45263                       (Unspecified)
system.caches.L1Cache_Controller.M.Fwd_GETS |        3750     68.82%     68.82% |        1699     31.18%    100.00% (Unspecified)
system.caches.L1Cache_Controller.M.Fwd_GETS::total         5449                       (Unspecified)
system.caches.L1Cache_Controller.IS.Data_Exclusive |      579790     49.47%     49.47% |      592208     50.53%    100.00% (Unspecified)
system.caches.L1Cache_Controller.IS.Data_Exclusive::total      1171998                       (Unspecified)
system.caches.L1Cache_Controller.IS.DataS_fromL1 |        6350     42.76%     42.76% |        8500     57.24%    100.00% (Unspecified)
system.caches.L1Cache_Controller.IS.DataS_fromL1::total        14850                       (Unspecified)
system.caches.L1Cache_Controller.IS.Data_all_Acks |       43263     54.65%     54.65% |       35896     45.35%    100.00% (Unspecified)
system.caches.L1Cache_Controller.IS.Data_all_Acks::total        79159                       (Unspecified)
system.caches.L1Cache_Controller.IM.Data |         888     99.89%     99.89% |           1      0.11%    100.00% (Unspecified)
system.caches.L1Cache_Controller.IM.Data::total          889                       (Unspecified)
system.caches.L1Cache_Controller.IM.Data_all_Acks |       49971     51.04%     51.04% |       47939     48.96%    100.00% (Unspecified)
system.caches.L1Cache_Controller.IM.Data_all_Acks::total        97910                       (Unspecified)
system.caches.L1Cache_Controller.SM.Inv  |           1     33.33%     33.33% |           2     66.67%    100.00% (Unspecified)
system.caches.L1Cache_Controller.SM.Inv::total            3                       (Unspecified)
system.caches.L1Cache_Controller.SM.Ack  |        4212     70.16%     70.16% |        1791     29.84%    100.00% (Unspecified)
system.caches.L1Cache_Controller.SM.Ack::total         6003                       (Unspecified)
system.caches.L1Cache_Controller.SM.Ack_all |        5100     74.00%     74.00% |        1792     26.00%    100.00% (Unspecified)
system.caches.L1Cache_Controller.SM.Ack_all::total         6892                       (Unspecified)
system.caches.L1Cache_Controller.M_I.WB_Ack |      593788     49.62%     49.62% |      602826     50.38%    100.00% (Unspecified)
system.caches.L1Cache_Controller.M_I.WB_Ack::total      1196614                       (Unspecified)
system.caches.Directory_Controller.Fetch      1173009      0.00%      0.00% (Unspecified)
system.caches.Directory_Controller.Data        174019      0.00%      0.00% (Unspecified)
system.caches.Directory_Controller.Memory_Data      1173008      0.00%      0.00% (Unspecified)
system.caches.Directory_Controller.Memory_Ack       174019      0.00%      0.00% (Unspecified)
system.caches.Directory_Controller.CleanReplacement       867918      0.00%      0.00% (Unspecified)
system.caches.Directory_Controller.I.Fetch      1173009      0.00%      0.00% (Unspecified)
system.caches.Directory_Controller.M.Data       174019      0.00%      0.00% (Unspecified)
system.caches.Directory_Controller.M.CleanReplacement       867918      0.00%      0.00% (Unspecified)
system.caches.Directory_Controller.IM.Memory_Data      1173008      0.00%      0.00% (Unspecified)
system.caches.Directory_Controller.MI.Memory_Ack       174019      0.00%      0.00% (Unspecified)
system.caches.L2Cache_Controller.L1_GET_INSTR |        1984     10.19%     10.19% |        2651     13.62%     23.81% |        2395     12.30%     36.12% |        1861      9.56%     45.68% |        2190     11.25%     56.93% |        2706     13.90%     70.83% |        2943     15.12%     85.95% |        2734     14.05%    100.00% (Unspecified)
system.caches.L2Cache_Controller.L1_GET_INSTR::total        19464                       (Unspecified)
system.caches.L2Cache_Controller.L1_GETS |      156622     12.56%     12.56% |      155811     12.50%     25.06% |      155236     12.45%     37.51% |      154727     12.41%     49.92% |      158463     12.71%     62.63% |      154618     12.40%     75.03% |      155632     12.48%     87.52% |      155654     12.48%    100.00% (Unspecified)
system.caches.L2Cache_Controller.L1_GETS::total      1246763                       (Unspecified)
system.caches.L2Cache_Controller.L1_GETX |       20543     20.72%     20.72% |        9685      9.77%     30.49% |       14040     14.16%     44.65% |        6638      6.70%     51.35% |       20206     20.38%     71.73% |        7001      7.06%     78.79% |       14162     14.28%     93.07% |        6867      6.93%    100.00% (Unspecified)
system.caches.L2Cache_Controller.L1_GETX::total        99142                       (Unspecified)
system.caches.L2Cache_Controller.L1_UPGRADE |         747     12.13%     12.13% |         747     12.13%     24.25% |         719     11.67%     35.93% |         657     10.67%     46.59% |         692     11.23%     57.82% |         701     11.38%     69.20% |        1140     18.51%     87.71% |         757     12.29%    100.00% (Unspecified)
system.caches.L2Cache_Controller.L1_UPGRADE::total         6160                       (Unspecified)
system.caches.L2Cache_Controller.L1_PUTX |      150300     12.56%     12.56% |      150183     12.55%     25.11% |      149235     12.47%     37.58% |      149630     12.50%     50.09% |      147296     12.31%     62.40% |      149956     12.53%     74.93% |      150065     12.54%     87.47% |      149949     12.53%    100.00% (Unspecified)
system.caches.L2Cache_Controller.L1_PUTX::total      1196614                       (Unspecified)
system.caches.L2Cache_Controller.L2_Replacement |       21733     12.52%     12.52% |       21665     12.48%     25.00% |       21722     12.51%     37.51% |       21697     12.50%     50.01% |       21710     12.51%     62.52% |       21708     12.51%     75.03% |       21693     12.50%     87.52% |       21660     12.48%    100.00% (Unspecified)
system.caches.L2Cache_Controller.L2_Replacement::total       173588                       (Unspecified)
system.caches.L2Cache_Controller.L2_Replacement_clean |      108740     12.52%     12.52% |      108588     12.51%     25.03% |      108197     12.46%     37.49% |      108370     12.48%     49.97% |      108718     12.52%     62.49% |      108479     12.49%     74.98% |      108757     12.52%     87.51% |      108500     12.49%    100.00% (Unspecified)
system.caches.L2Cache_Controller.L2_Replacement_clean::total       868349                       (Unspecified)
system.caches.L2Cache_Controller.Mem_Data |      146857     12.52%     12.52% |      146637     12.50%     25.02% |      146303     12.47%     37.49% |      146450     12.48%     49.98% |      146812     12.52%     62.49% |      146571     12.50%     74.99% |      146834     12.52%     87.51% |      146544     12.49%    100.00% (Unspecified)
system.caches.L2Cache_Controller.Mem_Data::total      1173008                       (Unspecified)
system.caches.L2Cache_Controller.Mem_Ack |      130473     12.52%     12.52% |      130253     12.50%     25.02% |      129919     12.47%     37.49% |      130067     12.48%     49.98% |      130428     12.52%     62.49% |      130187     12.49%     74.99% |      130450     12.52%     87.51% |      130160     12.49%    100.00% (Unspecified)
system.caches.L2Cache_Controller.Mem_Ack::total      1041937                       (Unspecified)
system.caches.L2Cache_Controller.WB_Data |         829     13.75%     13.75% |         685     11.36%     25.11% |         707     11.72%     36.83% |         669     11.09%     47.93% |         664     11.01%     58.94% |         686     11.38%     70.32% |        1016     16.85%     87.16% |         774     12.84%    100.00% (Unspecified)
system.caches.L2Cache_Controller.WB_Data::total         6030                       (Unspecified)
system.caches.L2Cache_Controller.WB_Data_clean |         820      8.72%      8.72% |         873      9.29%     18.01% |         893      9.50%     27.51% |         827      8.80%     36.30% |        3516     37.40%     73.70% |         826      8.79%     82.49% |         817      8.69%     91.18% |         829      8.82%    100.00% (Unspecified)
system.caches.L2Cache_Controller.WB_Data_clean::total         9401                       (Unspecified)
system.caches.L2Cache_Controller.Ack     |         819      9.31%      9.31% |         830      9.44%     18.75% |         853      9.70%     28.44% |         788      8.96%     37.40% |        3140     35.69%     73.09% |         810      9.21%     82.30% |         779      8.86%     91.16% |         778      8.84%    100.00% (Unspecified)
system.caches.L2Cache_Controller.Ack::total         8797                       (Unspecified)
system.caches.L2Cache_Controller.Ack_all |        1627     10.53%     10.53% |        1690     10.93%     21.46% |        1685     10.90%     32.36% |        1623     10.50%     42.86% |        3934     25.45%     68.32% |        1696     10.97%     79.29% |        1611     10.42%     89.71% |        1590     10.29%    100.00% (Unspecified)
system.caches.L2Cache_Controller.Ack_all::total        15456                       (Unspecified)
system.caches.L2Cache_Controller.Unblock |        1556     10.48%     10.48% |        1488     10.02%     20.50% |        1535     10.34%     30.84% |        1422      9.58%     40.41% |        4121     27.75%     68.16% |        1432      9.64%     77.80% |        1781     11.99%     89.80% |        1515     10.20%    100.00% (Unspecified)
system.caches.L2Cache_Controller.Unblock::total        14850                       (Unspecified)
system.caches.L2Cache_Controller.Exclusive_Unblock |      167931     13.15%     13.15% |      157249     12.32%     25.47% |      160783     12.59%     38.06% |      153593     12.03%     50.09% |      167479     13.12%     63.21% |      154004     12.06%     75.27% |      161679     12.66%     87.93% |      154082     12.07%    100.00% (Unspecified)
system.caches.L2Cache_Controller.Exclusive_Unblock::total      1276800                       (Unspecified)
system.caches.L2Cache_Controller.NP.L1_GET_INSTR |         846     12.87%     12.87% |         880     13.39%     26.26% |         806     12.26%     38.52% |         818     12.44%     50.97% |         825     12.55%     63.52% |         831     12.64%     76.16% |         781     11.88%     88.04% |         786     11.96%    100.00% (Unspecified)
system.caches.L2Cache_Controller.NP.L1_GET_INSTR::total         6573                       (Unspecified)
system.caches.L2Cache_Controller.NP.L1_GETS |      139991     12.52%     12.52% |      139746     12.50%     25.01% |      139495     12.47%     37.49% |      139622     12.49%     49.97% |      139984     12.52%     62.49% |      139713     12.49%     74.98% |      140032     12.52%     87.51% |      139728     12.49%    100.00% (Unspecified)
system.caches.L2Cache_Controller.NP.L1_GETS::total      1118311                       (Unspecified)
system.caches.L2Cache_Controller.NP.L1_GETX |        6020     12.51%     12.51% |        6011     12.49%     25.00% |        6002     12.47%     37.47% |        6011     12.49%     49.96% |        6003     12.47%     62.44% |        6027     12.52%     74.96% |        6021     12.51%     87.47% |        6030     12.53%    100.00% (Unspecified)
system.caches.L2Cache_Controller.NP.L1_GETX::total        48125                       (Unspecified)
system.caches.L2Cache_Controller.SS.L1_GET_INSTR |        1048      8.53%      8.53% |        1684     13.70%     22.23% |        1524     12.40%     34.64% |         980      7.98%     42.61% |        1282     10.43%     53.04% |        1795     14.61%     67.65% |        2098     17.07%     84.72% |        1877     15.28%    100.00% (Unspecified)
system.caches.L2Cache_Controller.SS.L1_GET_INSTR::total        12288                       (Unspecified)
system.caches.L2Cache_Controller.SS.L1_GETS |        8270     13.89%     13.89% |        7490     12.58%     26.47% |        7580     12.73%     39.20% |        6985     11.73%     50.94% |        7637     12.83%     63.77% |        6870     11.54%     75.30% |        7045     11.83%     87.14% |        7657     12.86%    100.00% (Unspecified)
system.caches.L2Cache_Controller.SS.L1_GETS::total        59534                       (Unspecified)
system.caches.L2Cache_Controller.SS.L1_GETX |         171     19.24%     19.24% |          91     10.24%     29.47% |          96     10.80%     40.27% |          98     11.02%     51.29% |         105     11.81%     63.10% |          91     10.24%     73.34% |         146     16.42%     89.76% |          91     10.24%    100.00% (Unspecified)
system.caches.L2Cache_Controller.SS.L1_GETX::total          889                       (Unspecified)
system.caches.L2Cache_Controller.SS.L1_UPGRADE |         746     12.43%     12.43% |         747     12.44%     24.87% |         718     11.96%     36.83% |         657     10.94%     47.78% |         692     11.53%     59.30% |         700     11.66%     70.96% |         986     16.43%     87.39% |         757     12.61%    100.00% (Unspecified)
system.caches.L2Cache_Controller.SS.L1_UPGRADE::total         6003                       (Unspecified)
system.caches.L2Cache_Controller.SS.L2_Replacement |         222     12.37%     12.37% |         221     12.32%     24.69% |         224     12.49%     37.18% |         233     12.99%     50.17% |         224     12.49%     62.65% |         220     12.26%     74.92% |         230     12.82%     87.74% |         220     12.26%    100.00% (Unspecified)
system.caches.L2Cache_Controller.SS.L2_Replacement::total         1794                       (Unspecified)
system.caches.L2Cache_Controller.SS.L2_Replacement_clean |        1000      9.72%      9.72% |        1042     10.13%     19.85% |        1044     10.15%     29.99% |         981      9.53%     39.53% |        3321     32.28%     71.80% |        1004      9.76%     81.56% |         943      9.17%     90.73% |         954      9.27%    100.00% (Unspecified)
system.caches.L2Cache_Controller.SS.L2_Replacement_clean::total        10289                       (Unspecified)
system.caches.L2Cache_Controller.M.L1_GETS |        6783     12.62%     12.62% |        7079     13.17%     25.78% |        6611     12.30%     38.08% |        6687     12.44%     50.51% |        6702     12.46%     62.98% |        6597     12.27%     75.25% |        6572     12.22%     87.47% |        6738     12.53%    100.00% (Unspecified)
system.caches.L2Cache_Controller.M.L1_GETS::total        53769                       (Unspecified)
system.caches.L2Cache_Controller.M.L1_GETX |         657     14.64%     14.64% |         514     11.46%     26.10% |         349      7.78%     33.88% |         484     10.79%     44.66% |         408      9.09%     53.76% |         835     18.61%     72.36% |         607     13.53%     85.89% |         633     14.11%    100.00% (Unspecified)
system.caches.L2Cache_Controller.M.L1_GETX::total         4487                       (Unspecified)
system.caches.L2Cache_Controller.M.L2_Replacement |       21483     12.52%     12.52% |       21421     12.48%     25.00% |       21477     12.51%     37.51% |       21440     12.49%     50.01% |       21471     12.51%     62.52% |       21465     12.51%     75.03% |       21444     12.50%     87.52% |       21417     12.48%    100.00% (Unspecified)
system.caches.L2Cache_Controller.M.L2_Replacement::total       171618                       (Unspecified)
system.caches.L2Cache_Controller.M.L2_Replacement_clean |      107270     12.56%     12.56% |      107072     12.53%     25.09% |      106692     12.49%     37.58% |      106930     12.52%     50.10% |      104964     12.29%     62.38% |      106946     12.52%     74.90% |      107343     12.57%     87.47% |      107065     12.53%    100.00% (Unspecified)
system.caches.L2Cache_Controller.M.L2_Replacement_clean::total       854282                       (Unspecified)
system.caches.L2Cache_Controller.MT.L1_GETS |        1556     10.48%     10.48% |        1488     10.02%     20.50% |        1535     10.34%     30.84% |        1422      9.58%     40.41% |        4121     27.75%     68.16% |        1432      9.64%     77.80% |        1781     11.99%     89.80% |        1515     10.20%    100.00% (Unspecified)
system.caches.L2Cache_Controller.MT.L1_GETS::total        14850                       (Unspecified)
system.caches.L2Cache_Controller.MT.L1_GETX |       13584     29.99%     29.99% |        3068      6.77%     36.76% |        7527     16.62%     53.38% |          44      0.10%     53.47% |       13598     30.02%     83.49% |          47      0.10%     83.60% |        7320     16.16%     99.76% |         110      0.24%    100.00% (Unspecified)
system.caches.L2Cache_Controller.MT.L1_GETX::total        45298                       (Unspecified)
system.caches.L2Cache_Controller.MT.L1_PUTX |      150300     12.56%     12.56% |      150183     12.55%     25.11% |      149235     12.47%     37.58% |      149630     12.50%     50.09% |      147296     12.31%     62.40% |      149956     12.53%     74.93% |      150065     12.54%     87.47% |      149949     12.53%    100.00% (Unspecified)
system.caches.L2Cache_Controller.MT.L1_PUTX::total      1196614                       (Unspecified)
system.caches.L2Cache_Controller.MT.L2_Replacement |          28     15.91%     15.91% |          23     13.07%     28.98% |          21     11.93%     40.91% |          24     13.64%     54.55% |          15      8.52%     63.07% |          23     13.07%     76.14% |          19     10.80%     86.93% |          23     13.07%    100.00% (Unspecified)
system.caches.L2Cache_Controller.MT.L2_Replacement::total          176                       (Unspecified)
system.caches.L2Cache_Controller.MT.L2_Replacement_clean |         470     12.44%     12.44% |         474     12.55%     24.99% |         461     12.20%     37.19% |         459     12.15%     49.34% |         433     11.46%     60.80% |         529     14.00%     74.80% |         471     12.47%     87.27% |         481     12.73%    100.00% (Unspecified)
system.caches.L2Cache_Controller.MT.L2_Replacement_clean::total         3778                       (Unspecified)
system.caches.L2Cache_Controller.M_I.L1_GET_INSTR |           0      0.00%      0.00% |           0      0.00%      0.00% |           0      0.00%      0.00% |           0      0.00%      0.00% |           0      0.00%      0.00% |           0      0.00%      0.00% |           0      0.00%      0.00% |           1    100.00%    100.00% (Unspecified)
system.caches.L2Cache_Controller.M_I.L1_GET_INSTR::total            1                       (Unspecified)
system.caches.L2Cache_Controller.M_I.L1_GETS |           0      0.00%      0.00% |           0      0.00%      0.00% |           0      0.00%      0.00% |           1     50.00%     50.00% |           1     50.00%    100.00% |           0      0.00%    100.00% |           0      0.00%    100.00% |           0      0.00%    100.00% (Unspecified)
system.caches.L2Cache_Controller.M_I.L1_GETS::total            2                       (Unspecified)
system.caches.L2Cache_Controller.M_I.L1_GETX |           1     50.00%     50.00% |           0      0.00%     50.00% |           0      0.00%     50.00% |           0      0.00%     50.00% |           0      0.00%     50.00% |           0      0.00%     50.00% |           0      0.00%     50.00% |           1     50.00%    100.00% (Unspecified)
system.caches.L2Cache_Controller.M_I.L1_GETX::total            2                       (Unspecified)
system.caches.L2Cache_Controller.M_I.Mem_Ack |      130473     12.52%     12.52% |      130253     12.50%     25.02% |      129919     12.47%     37.49% |      130067     12.48%     49.98% |      130428     12.52%     62.49% |      130187     12.49%     74.99% |      130450     12.52%     87.51% |      130160     12.49%    100.00% (Unspecified)
system.caches.L2Cache_Controller.M_I.Mem_Ack::total      1041937                       (Unspecified)
system.caches.L2Cache_Controller.MT_I.WB_Data |          23     15.33%     15.33% |          20     13.33%     28.67% |          16     10.67%     39.33% |          21     14.00%     53.33% |          12      8.00%     61.33% |          21     14.00%     75.33% |          16     10.67%     86.00% |          21     14.00%    100.00% (Unspecified)
system.caches.L2Cache_Controller.MT_I.WB_Data::total          150                       (Unspecified)
system.caches.L2Cache_Controller.MT_I.Ack_all |           5     19.23%     19.23% |           3     11.54%     30.77% |           5     19.23%     50.00% |           3     11.54%     61.54% |           3     11.54%     73.08% |           2      7.69%     80.77% |           3     11.54%     92.31% |           2      7.69%    100.00% (Unspecified)
system.caches.L2Cache_Controller.MT_I.Ack_all::total           26                       (Unspecified)
system.caches.L2Cache_Controller.MCT_I.WB_Data |          70     16.24%     16.24% |          50     11.60%     27.84% |          49     11.37%     39.21% |          53     12.30%     51.51% |          47     10.90%     62.41% |          59     13.69%     76.10% |          36      8.35%     84.45% |          67     15.55%    100.00% (Unspecified)
system.caches.L2Cache_Controller.MCT_I.WB_Data::total          431                       (Unspecified)
system.caches.L2Cache_Controller.MCT_I.Ack_all |         400     11.95%     11.95% |         424     12.67%     24.62% |         412     12.31%     36.93% |         406     12.13%     49.06% |         386     11.53%     60.59% |         470     14.04%     74.63% |         435     13.00%     87.63% |         414     12.37%    100.00% (Unspecified)
system.caches.L2Cache_Controller.MCT_I.Ack_all::total         3347                       (Unspecified)
system.caches.L2Cache_Controller.I_I.Ack |         597      8.52%      8.52% |         609      8.70%     17.22% |         629      8.98%     26.20% |         555      7.93%     34.13% |        2916     41.64%     75.77% |         590      8.42%     84.19% |         549      7.84%     92.03% |         558      7.97%    100.00% (Unspecified)
system.caches.L2Cache_Controller.I_I.Ack::total         7003                       (Unspecified)
system.caches.L2Cache_Controller.I_I.Ack_all |        1000      9.72%      9.72% |        1042     10.13%     19.85% |        1044     10.15%     29.99% |         981      9.53%     39.53% |        3321     32.28%     71.80% |        1004      9.76%     81.56% |         943      9.17%     90.73% |         954      9.27%    100.00% (Unspecified)
system.caches.L2Cache_Controller.I_I.Ack_all::total        10289                       (Unspecified)
system.caches.L2Cache_Controller.S_I.Ack |         222     12.37%     12.37% |         221     12.32%     24.69% |         224     12.49%     37.18% |         233     12.99%     50.17% |         224     12.49%     62.65% |         220     12.26%     74.92% |         230     12.82%     87.74% |         220     12.26%    100.00% (Unspecified)
system.caches.L2Cache_Controller.S_I.Ack::total         1794                       (Unspecified)
system.caches.L2Cache_Controller.S_I.Ack_all |         222     12.37%     12.37% |         221     12.32%     24.69% |         224     12.49%     37.18% |         233     12.99%     50.17% |         224     12.49%     62.65% |         220     12.26%     74.92% |         230     12.82%     87.74% |         220     12.26%    100.00% (Unspecified)
system.caches.L2Cache_Controller.S_I.Ack_all::total         1794                       (Unspecified)
system.caches.L2Cache_Controller.ISS.L1_GETS |          21     25.93%     25.93% |           7      8.64%     34.57% |          15     18.52%     53.09% |           9     11.11%     64.20% |          13     16.05%     80.25% |           6      7.41%     87.65% |           5      6.17%     93.83% |           5      6.17%    100.00% (Unspecified)
system.caches.L2Cache_Controller.ISS.L1_GETS::total           81                       (Unspecified)
system.caches.L2Cache_Controller.ISS.Mem_Data |      139970     12.52%     12.52% |      139739     12.50%     25.01% |      139480     12.47%     37.49% |      139612     12.49%     49.97% |      139971     12.52%     62.49% |      139707     12.49%     74.98% |      140027     12.52%     87.50% |      139723     12.50%    100.00% (Unspecified)
system.caches.L2Cache_Controller.ISS.Mem_Data::total      1118229                       (Unspecified)
system.caches.L2Cache_Controller.IS.L1_GET_INSTR |          90     14.95%     14.95% |          87     14.45%     29.40% |          65     10.80%     40.20% |          63     10.47%     50.66% |          83     13.79%     64.45% |          80     13.29%     77.74% |          64     10.63%     88.37% |          70     11.63%    100.00% (Unspecified)
system.caches.L2Cache_Controller.IS.L1_GET_INSTR::total          602                       (Unspecified)
system.caches.L2Cache_Controller.IS.Mem_Data |         867     13.03%     13.03% |         887     13.33%     26.36% |         821     12.34%     38.70% |         827     12.43%     51.13% |         838     12.59%     63.72% |         837     12.58%     76.30% |         786     11.81%     88.11% |         791     11.89%    100.00% (Unspecified)
system.caches.L2Cache_Controller.IS.Mem_Data::total         6654                       (Unspecified)
system.caches.L2Cache_Controller.IM.L1_GETX |           3     18.75%     18.75% |           1      6.25%     25.00% |           1      6.25%     31.25% |           1      6.25%     37.50% |           4     25.00%     62.50% |           1      6.25%     68.75% |           4     25.00%     93.75% |           1      6.25%    100.00% (Unspecified)
system.caches.L2Cache_Controller.IM.L1_GETX::total           16                       (Unspecified)
system.caches.L2Cache_Controller.IM.Mem_Data |        6020     12.51%     12.51% |        6011     12.49%     25.00% |        6002     12.47%     37.47% |        6011     12.49%     49.96% |        6003     12.47%     62.44% |        6027     12.52%     74.96% |        6021     12.51%     87.47% |        6030     12.53%    100.00% (Unspecified)
system.caches.L2Cache_Controller.IM.Mem_Data::total        48125                       (Unspecified)
system.caches.L2Cache_Controller.SS_MB.L1_GETS |           0      0.00%      0.00% |           0      0.00%      0.00% |           0      0.00%      0.00% |           1      0.48%      0.48% |           5      2.40%      2.88% |           0      0.00%      2.88% |         196     94.23%     97.12% |           6      2.88%    100.00% (Unspecified)
system.caches.L2Cache_Controller.SS_MB.L1_GETS::total          208                       (Unspecified)
system.caches.L2Cache_Controller.SS_MB.L1_GETX |           0      0.00%      0.00% |           0      0.00%      0.00% |           0      0.00%      0.00% |           0      0.00%      0.00% |           0      0.00%      0.00% |           0      0.00%      0.00% |           0      0.00%      0.00% |           1    100.00%    100.00% (Unspecified)
system.caches.L2Cache_Controller.SS_MB.L1_GETX::total            1                       (Unspecified)
system.caches.L2Cache_Controller.SS_MB.L1_UPGRADE |           1     33.33%     33.33% |           0      0.00%     33.33% |           1     33.33%     66.67% |           0      0.00%     66.67% |           0      0.00%     66.67% |           1     33.33%    100.00% |           0      0.00%    100.00% |           0      0.00%    100.00% (Unspecified)
system.caches.L2Cache_Controller.SS_MB.L1_UPGRADE::total            3                       (Unspecified)
system.caches.L2Cache_Controller.SS_MB.Exclusive_Unblock |         917     13.31%     13.31% |         838     12.16%     25.46% |         814     11.81%     37.28% |         755     10.95%     48.23% |         797     11.56%     59.79% |         791     11.48%     71.27% |        1132     16.42%     87.70% |         848     12.30%    100.00% (Unspecified)
system.caches.L2Cache_Controller.SS_MB.Exclusive_Unblock::total         6892                       (Unspecified)
system.caches.L2Cache_Controller.MT_MB.L1_GETS |           1     12.50%     12.50% |           1     12.50%     25.00% |           0      0.00%     25.00% |           0      0.00%     25.00% |           0      0.00%     25.00% |           0      0.00%     25.00% |           1     12.50%     37.50% |           5     62.50%    100.00% (Unspecified)
system.caches.L2Cache_Controller.MT_MB.L1_GETS::total            8                       (Unspecified)
system.caches.L2Cache_Controller.MT_MB.L1_GETX |         107     33.02%     33.02% |           0      0.00%     33.02% |          65     20.06%     53.09% |           0      0.00%     53.09% |          88     27.16%     80.25% |           0      0.00%     80.25% |          64     19.75%    100.00% |           0      0.00%    100.00% (Unspecified)
system.caches.L2Cache_Controller.MT_MB.L1_GETX::total          324                       (Unspecified)
system.caches.L2Cache_Controller.MT_MB.Exclusive_Unblock |      167014     13.15%     13.15% |      156411     12.32%     25.47% |      159969     12.60%     38.07% |      152838     12.04%     50.10% |      166682     13.13%     63.23% |      153213     12.06%     75.29% |      160547     12.64%     87.93% |      153234     12.07%    100.00% (Unspecified)
system.caches.L2Cache_Controller.MT_MB.Exclusive_Unblock::total      1269908                       (Unspecified)
system.caches.L2Cache_Controller.MT_IIB.WB_Data |         736     13.51%     13.51% |         615     11.29%     24.79% |         642     11.78%     36.58% |         595     10.92%     47.49% |         605     11.10%     58.60% |         606     11.12%     69.72% |         964     17.69%     87.41% |         686     12.59%    100.00% (Unspecified)
[...]
system.timingCpu0.exec_context.thread_0.statExecutedInstType::FloatMemRead         1931      0.00%     99.89% # Class of executed instruction. (Count)
system.timingCpu0.exec_context.thread_0.statExecutedInstType::FloatMemWrite        83740      0.11%    100.00% # Class of executed instruction. (Count)
system.timingCpu0.exec_context.thread_0.statExecutedInstType::IprAccess            0      0.00%    100.00% # Class of executed instruction. (Count)
system.timingCpu0.exec_context.thread_0.statExecutedInstType::InstPrefetch            0      0.00%    100.00% # Class of executed instruction. (Count)
system.timingCpu0.exec_context.thread_0.statExecutedInstType::total     72948113                       # Class of executed instruction. (Count)
system.timingCpu0.mmu.dtb.rdAccesses         10829390                       # TLB accesses on read requests (Count)
system.timingCpu0.mmu.dtb.wrAccesses          1473457                       # TLB accesses on write requests (Count)
system.timingCpu0.mmu.dtb.rdMisses               9052                       # TLB misses on read requests (Count)
system.timingCpu0.mmu.dtb.wrMisses                667                       # TLB misses on write requests (Count)
system.timingCpu0.mmu.dtb.walker.power_state.pwrStateResidencyTicks::UNDEFINED 165662089465001                       # Cumulative time (in ticks) in various power states (Tick)
system.timingCpu0.mmu.itb.rdAccesses                0                       # TLB accesses on read requests (Count)
system.timingCpu0.mmu.itb.wrAccesses         54192050                       # TLB accesses on write requests (Count)
system.timingCpu0.mmu.itb.rdMisses                  0                       # TLB misses on read requests (Count)
system.timingCpu0.mmu.itb.wrMisses               1360                       # TLB misses on write requests (Count)
system.timingCpu0.mmu.itb.walker.power_state.pwrStateResidencyTicks::UNDEFINED 165662089465001                       # Cumulative time (in ticks) in various power states (Tick)
system.timingCpu0.power_state.numTransitions            2                       # Number of power state transitions (Count)
system.timingCpu0.power_state.ticksClkGated::samples            1                       # Distribution of time spent in the clock gated state (Tick)
system.timingCpu0.power_state.ticksClkGated::mean    288775000                       # Distribution of time spent in the clock gated state (Tick)
system.timingCpu0.power_state.ticksClkGated::1000-5e+10            1    100.00%    100.00% # Distribution of time spent in the clock gated state (Tick)
system.timingCpu0.power_state.ticksClkGated::min_value    288775000                       # Distribution of time spent in the clock gated state (Tick)
system.timingCpu0.power_state.ticksClkGated::max_value    288775000                       # Distribution of time spent in the clock gated state (Tick)
system.timingCpu0.power_state.ticksClkGated::total            1                       # Distribution of time spent in the clock gated state (Tick)
system.timingCpu0.power_state.pwrStateResidencyTicks::ON  87240733501                       # Cumulative time (in ticks) in various power states (Tick)
system.timingCpu0.power_state.pwrStateResidencyTicks::CLK_GATED    288775000                       # Cumulative time (in ticks) in various power states (Tick)
system.timingCpu0.power_state.pwrStateResidencyTicks::OFF 165574559956500                       # Cumulative time (in ticks) in various power states (Tick)
system.timingCpu0.thread_0.numInsts                 0                       # Number of Instructions committed (Count)
system.timingCpu0.thread_0.numOps                   0                       # Number of Ops committed (Count)
system.timingCpu0.thread_0.numMemRefs               0                       # Number of Memory References (Count)
system.timingCpu1.numCycles                 391062178                       # Number of cpu cycles simulated (Cycle)
system.timingCpu1.numWorkItemsStarted               0                       # Number of work items this cpu started (Count)
system.timingCpu1.numWorkItemsCompleted             0                       # Number of work items this cpu completed (Count)
system.timingCpu1.exec_context.thread_0.numInsts     44887457                       # Number of instructions committed (Count)
system.timingCpu1.exec_context.thread_0.numOps     74427728                       # Number of ops (including micro ops) committed (Count)
system.timingCpu1.exec_context.thread_0.numIntAluAccesses     73500906                       # Number of integer alu accesses (Count)
system.timingCpu1.exec_context.thread_0.numFpAluAccesses        12916                       # Number of float alu accesses (Count)
system.timingCpu1.exec_context.thread_0.numVecAluAccesses            0                       # Number of vector alu accesses (Count)
system.timingCpu1.exec_context.thread_0.numCallsReturns        51520                       # Number of times a function call or return occured (Count)
system.timingCpu1.exec_context.thread_0.numCondCtrlInsts      9423600                       # Number of instructions that are conditional controls (Count)
system.timingCpu1.exec_context.thread_0.numIntInsts     73500906                       # Number of integer instructions (Count)
system.timingCpu1.exec_context.thread_0.numFpInsts        12916                       # Number of float instructions (Count)
system.timingCpu1.exec_context.thread_0.numVecInsts            0                       # Number of vector instructions (Count)
system.timingCpu1.exec_context.thread_0.numIntRegReads     93934796                       # Number of times the integer registers were read (Count)
system.timingCpu1.exec_context.thread_0.numIntRegWrites     53173411                       # Number of times the integer registers were written (Count)
system.timingCpu1.exec_context.thread_0.numFpRegReads         9524                       # Number of times the floating registers were read (Count)
system.timingCpu1.exec_context.thread_0.numFpRegWrites         7088                       # Number of times the floating registers were written (Count)
system.timingCpu1.exec_context.thread_0.numVecRegReads            0                       # Number of times the vector registers were read (Count)
system.timingCpu1.exec_context.thread_0.numVecRegWrites            0                       # Number of times the vector registers were written (Count)
system.timingCpu1.exec_context.thread_0.numVecPredRegReads            0                       # Number of times the predicate registers were read (Count)
system.timingCpu1.exec_context.thread_0.numVecPredRegWrites            0                       # Number of times the predicate registers were written (Count)
system.timingCpu1.exec_context.thread_0.numCCRegReads     52705454                       # Number of times the CC registers were read (Count)
system.timingCpu1.exec_context.thread_0.numCCRegWrites     37191833                       # Number of times the CC registers were written (Count)
system.timingCpu1.exec_context.thread_0.numMiscRegReads     31360940                       # Number of times the Misc registers were read (Count)
system.timingCpu1.exec_context.thread_0.numMiscRegWrites         8286                       # Number of times the Misc registers were written (Count)
system.timingCpu1.exec_context.thread_0.numMemRefs     12388011                       # Number of memory refs (Count)
system.timingCpu1.exec_context.thread_0.numLoadInsts     10970281                       # Number of load instructions (Count)
system.timingCpu1.exec_context.thread_0.numStoreInsts      1417730                       # Number of store instructions (Count)
system.timingCpu1.exec_context.thread_0.numIdleCycles 4207259.999914                       # Number of idle cycles (Cycle)
system.timingCpu1.exec_context.thread_0.numBusyCycles 386854918.000086                       # Number of busy cycles (Cycle)
system.timingCpu1.exec_context.thread_0.notIdleFraction     0.989241                       # Percentage of non-idle cycles (Ratio)
system.timingCpu1.exec_context.thread_0.idleFraction     0.010759                       # Percentage of idle cycles (Ratio)
system.timingCpu1.exec_context.thread_0.numBranches      9492718                       # Number of branches fetched (Count)
system.timingCpu1.exec_context.thread_0.statExecutedInstType::No_OpClass       198445      0.27%      0.27% # Class of executed instruction. (Count)
system.timingCpu1.exec_context.thread_0.statExecutedInstType::IntAlu     61835363     83.08%     83.34% # Class of executed instruction. (Count)
system.timingCpu1.exec_context.thread_0.statExecutedInstType::IntMult         2335      0.00%     83.35% # Class of executed instruction. (Count)
system.timingCpu1.exec_context.thread_0.statExecutedInstType::IntDiv         5010      0.01%     83.35% # Class of executed instruction. (Count)
system.timingCpu1.exec_context.thread_0.statExecutedInstType::FloatAdd           34      0.00%     83.35% # Class of executed instruction. (Count)
system.timingCpu1.exec_context.thread_0.statExecutedInstType::FloatCmp            0      0.00%     83.35% # Class of executed instruction. (Count)
system.timingCpu1.exec_context.thread_0.statExecutedInstType::FloatCvt           80      0.00%     83.35% # Class of executed instruction. (Count)
system.timingCpu1.exec_context.thread_0.statExecutedInstType::FloatMult            0      0.00%     83.35% # Class of executed instruction. (Count)
system.timingCpu1.exec_context.thread_0.statExecutedInstType::FloatMultAcc            0      0.00%     83.35% # Class of executed instruction. (Count)
system.timingCpu1.exec_context.thread_0.statExecutedInstType::FloatDiv            0      0.00%     83.35% # Class of executed instruction. (Count)
system.timingCpu1.exec_context.thread_0.statExecutedInstType::FloatMisc            0      0.00%     83.35% # Class of executed instruction. (Count)
system.timingCpu1.exec_context.thread_0.statExecutedInstType::FloatSqrt            0      0.00%     83.35% # Class of executed instruction. (Count)
system.timingCpu1.exec_context.thread_0.statExecutedInstType::SimdAdd          426      0.00%     83.36% # Class of executed instruction. (Count)
system.timingCpu1.exec_context.thread_0.statExecutedInstType::SimdAddAcc            0      0.00%     83.36% # Class of executed instruction. (Count)
system.timingCpu1.exec_context.thread_0.statExecutedInstType::SimdAlu           86      0.00%     83.36% # Class of executed instruction. (Count)
system.timingCpu1.exec_context.thread_0.statExecutedInstType::SimdCmp            0      0.00%     83.36% # Class of executed instruction. (Count)
system.timingCpu1.exec_context.thread_0.statExecutedInstType::SimdCvt          168      0.00%     83.36% # Class of executed instruction. (Count)
system.timingCpu1.exec_context.thread_0.statExecutedInstType::SimdMisc          176      0.00%     83.36% # Class of executed instruction. (Count)
system.timingCpu1.exec_context.thread_0.statExecutedInstType::SimdMult            0      0.00%     83.36% # Class of executed instruction. (Count)
system.timingCpu1.exec_context.thread_0.statExecutedInstType::SimdMultAcc            0      0.00%     83.36% # Class of executed instruction. (Count)
system.timingCpu1.exec_context.thread_0.statExecutedInstType::SimdShift          234      0.00%     83.36% # Class of executed instruction. (Count)
system.timingCpu1.exec_context.thread_0.statExecutedInstType::SimdShiftAcc            0      0.00%     83.36% # Class of executed instruction. (Count)
system.timingCpu1.exec_context.thread_0.statExecutedInstType::SimdDiv            0      0.00%     83.36% # Class of executed instruction. (Count)
system.timingCpu1.exec_context.thread_0.statExecutedInstType::SimdSqrt            0      0.00%     83.36% # Class of executed instruction. (Count)
system.timingCpu1.exec_context.thread_0.statExecutedInstType::SimdFloatAdd            0      0.00%     83.36% # Class of executed instruction. (Count)
system.timingCpu1.exec_context.thread_0.statExecutedInstType::SimdFloatAlu            0      0.00%     83.36% # Class of executed instruction. (Count)
system.timingCpu1.exec_context.thread_0.statExecutedInstType::SimdFloatCmp            0      0.00%     83.36% # Class of executed instruction. (Count)
system.timingCpu1.exec_context.thread_0.statExecutedInstType::SimdFloatCvt            0      0.00%     83.36% # Class of executed instruction. (Count)
system.timingCpu1.exec_context.thread_0.statExecutedInstType::SimdFloatDiv            0      0.00%     83.36% # Class of executed instruction. (Count)
system.timingCpu1.exec_context.thread_0.statExecutedInstType::SimdFloatMisc            0      0.00%     83.36% # Class of executed instruction. (Count)
system.timingCpu1.exec_context.thread_0.statExecutedInstType::SimdFloatMult            0      0.00%     83.36% # Class of executed instruction. (Count)
system.timingCpu1.exec_context.thread_0.statExecutedInstType::SimdFloatMultAcc            0      0.00%     83.36% # Class of executed instruction. (Count)
system.timingCpu1.exec_context.thread_0.statExecutedInstType::SimdFloatSqrt            0      0.00%     83.36% # Class of executed instruction. (Count)
system.timingCpu1.exec_context.thread_0.statExecutedInstType::SimdReduceAdd            0      0.00%     83.36% # Class of executed instruction. (Count)
system.timingCpu1.exec_context.thread_0.statExecutedInstType::SimdReduceAlu            0      0.00%     83.36% # Class of executed instruction. (Count)
system.timingCpu1.exec_context.thread_0.statExecutedInstType::SimdReduceCmp            0      0.00%     83.36% # Class of executed instruction. (Count)
system.timingCpu1.exec_context.thread_0.statExecutedInstType::SimdFloatReduceAdd            0      0.00%     83.36% # Class of executed instruction. (Count)
system.timingCpu1.exec_context.thread_0.statExecutedInstType::SimdFloatReduceCmp            0      0.00%     83.36% # Class of executed instruction. (Count)
system.timingCpu1.exec_context.thread_0.statExecutedInstType::SimdAes            0      0.00%     83.36% # Class of executed instruction. (Count)
system.timingCpu1.exec_context.thread_0.statExecutedInstType::SimdAesMix            0      0.00%     83.36% # Class of executed instruction. (Count)
system.timingCpu1.exec_context.thread_0.statExecutedInstType::SimdSha1Hash            0      0.00%     83.36% # Class of executed instruction. (Count)
system.timingCpu1.exec_context.thread_0.statExecutedInstType::SimdSha1Hash2            0      0.00%     83.36% # Class of executed instruction. (Count)
system.timingCpu1.exec_context.thread_0.statExecutedInstType::SimdSha256Hash            0      0.00%     83.36% # Class of executed instruction. (Count)
system.timingCpu1.exec_context.thread_0.statExecutedInstType::SimdSha256Hash2            0      0.00%     83.36% # Class of executed instruction. (Count)
system.timingCpu1.exec_context.thread_0.statExecutedInstType::SimdShaSigma2            0      0.00%     83.36% # Class of executed instruction. (Count)
system.timingCpu1.exec_context.thread_0.statExecutedInstType::SimdShaSigma3            0      0.00%     83.36% # Class of executed instruction. (Count)
system.timingCpu1.exec_context.thread_0.statExecutedInstType::SimdPredAlu            0      0.00%     83.36% # Class of executed instruction. (Count)
system.timingCpu1.exec_context.thread_0.statExecutedInstType::MemRead     10964778     14.73%     98.09% # Class of executed instruction. (Count)
system.timingCpu1.exec_context.thread_0.statExecutedInstType::MemWrite      1412034      1.90%     99.98% # Class of executed instruction. (Count)
system.timingCpu1.exec_context.thread_0.statExecutedInstType::FloatMemRead         5503      0.01%     99.99% # Class of executed instruction. (Count)
system.timingCpu1.exec_context.thread_0.statExecutedInstType::FloatMemWrite         5696      0.01%    100.00% # Class of executed instruction. (Count)
system.timingCpu1.exec_context.thread_0.statExecutedInstType::IprAccess            0      0.00%    100.00% # Class of executed instruction. (Count)
system.timingCpu1.exec_context.thread_0.statExecutedInstType::InstPrefetch            0      0.00%    100.00% # Class of executed instruction. (Count)
system.timingCpu1.exec_context.thread_0.statExecutedInstType::total     74430368                       # Class of executed instruction. (Count)
system.timingCpu1.mmu.dtb.rdAccesses         10977133                       # TLB accesses on read requests (Count)
system.timingCpu1.mmu.dtb.wrAccesses          1417595                       # TLB accesses on write requests (Count)
system.timingCpu1.mmu.dtb.rdMisses               7869                       # TLB misses on read requests (Count)
system.timingCpu1.mmu.dtb.wrMisses                437                       # TLB misses on write requests (Count)
system.timingCpu1.mmu.dtb.walker.power_state.pwrStateResidencyTicks::UNDEFINED 165662089465001                       # Cumulative time (in ticks) in various power states (Tick)
system.timingCpu1.mmu.itb.rdAccesses                0                       # TLB accesses on read requests (Count)
system.timingCpu1.mmu.itb.wrAccesses         55590447                       # TLB accesses on write requests (Count)
system.timingCpu1.mmu.itb.rdMisses                  0                       # TLB misses on read requests (Count)
system.timingCpu1.mmu.itb.wrMisses                570                       # TLB misses on write requests (Count)
system.timingCpu1.mmu.itb.walker.power_state.pwrStateResidencyTicks::UNDEFINED 165662089465001                       # Cumulative time (in ticks) in various power states (Tick)
system.timingCpu1.power_state.numTransitions            4                       # Number of power state transitions (Count)
system.timingCpu1.power_state.ticksClkGated::samples            2                       # Distribution of time spent in the clock gated state (Tick)
system.timingCpu1.power_state.ticksClkGated::mean    525907500                       # Distribution of time spent in the clock gated state (Tick)
system.timingCpu1.power_state.ticksClkGated::stdev 641697636.159839                       # Distribution of time spent in the clock gated state (Tick)
system.timingCpu1.power_state.ticksClkGated::1000-5e+10            2    100.00%    100.00% # Distribution of time spent in the clock gated state (Tick)
system.timingCpu1.power_state.ticksClkGated::min_value     72158750                       # Distribution of time spent in the clock gated state (Tick)
system.timingCpu1.power_state.ticksClkGated::max_value    979656250                       # Distribution of time spent in the clock gated state (Tick)
system.timingCpu1.power_state.ticksClkGated::total            2                       # Distribution of time spent in the clock gated state (Tick)
system.timingCpu1.power_state.pwrStateResidencyTicks::ON   1017306251                       # Cumulative time (in ticks) in various power states (Tick)
system.timingCpu1.power_state.pwrStateResidencyTicks::CLK_GATED   1051815000                       # Cumulative time (in ticks) in various power states (Tick)
system.timingCpu1.power_state.pwrStateResidencyTicks::OFF 165660020343750                       # Cumulative time (in ticks) in various power states (Tick)
system.timingCpu1.thread_0.numInsts                 0                       # Number of Instructions committed (Count)
system.timingCpu1.thread_0.numOps                   0                       # Number of Ops committed (Count)
system.timingCpu1.thread_0.numMemRefs               0                       # Number of Memory References (Count)
system.workload.inst.arm                            0                       # number of arm instructions executed (Count)
system.workload.inst.quiesce                        0                       # number of quiesce instructions executed (Count)

---------- End Simulation Statistics   ----------
