
---------- Begin Simulation Statistics ----------
simSeconds                                   0.001000                       # Number of seconds simulated (Second)
simTicks                                   1000000000                       # Number of ticks simulated (Tick)
finalTick                                  1000000000                       # Number of ticks from beginning of simulation (restored from checkpoints and never reset) (Tick)
simFreq                                  1000000000000                       # The number of ticks per simulated second ((Tick/Second))
hostSeconds                                     16.81                       # Real time elapsed on the host (Second)
hostTickRate                                 59476680                       # The number of ticks simulated per host second (ticks/s) ((Tick/Second))
hostMemory                                   17490240                       # Number of bytes of host memory used (Byte)
system.clk_domain.clock                           250                       # Clock period in ticks (Tick)
system.clk_domain.voltage_domain.voltage            1                       # Voltage in Volts (Volt)
system.dcache_ctrl.avgPriority_generator::samples    109940.00                       # Average QoS priority value for accepted requests (Count)
system.dcache_ctrl.priorityMinLatency    0.000001889000                       # per QoS priority minimum request to response latency (Second)
system.dcache_ctrl.priorityMaxLatency    0.000014933500                       # per QoS priority maximum request to response latency (Second)
system.dcache_ctrl.numReadWriteTurnArounds            0                       # Number of turnarounds from READ to WRITE (Count)
system.dcache_ctrl.numWriteReadTurnArounds            0                       # Number of turnarounds from WRITE to READ (Count)
system.dcache_ctrl.numStayReadState                 0                       # Number of times bus staying in READ state (Count)
system.dcache_ctrl.numStayWriteState                0                       # Number of times bus staying in WRITE state (Count)
system.dcache_ctrl.readReqs                         0                       # Number of read requests accepted (Count)
system.dcache_ctrl.writeReqs                        0                       # Number of write requests accepted (Count)
system.dcache_ctrl.readBursts                       0                       # Number of controller read bursts, including those serviced by the write queue (Count)
system.dcache_ctrl.writeBursts                      0                       # Number of controller write bursts, including those merged in the write queue (Count)
system.dcache_ctrl.servicedByWrQ                    0                       # Number of controller read bursts serviced by the write queue (Count)
system.dcache_ctrl.mergedWrBursts                   0                       # Number of controller write bursts merged with an existing one (Count)
system.dcache_ctrl.neitherReadNorWriteReqs            0                       # Number of requests that are neither read nor write (Count)
system.dcache_ctrl.avgRdQLen                     0.00                       # Average read queue length when enqueuing ((Count/Tick))
system.dcache_ctrl.avgWrQLen                     0.00                       # Average write queue length when enqueuing ((Count/Tick))
system.dcache_ctrl.numRdRetry                       0                       # Number of times read queue was full causing retry (Count)
system.dcache_ctrl.numWrRetry                       0                       # Number of times write queue was full causing retry (Count)
system.dcache_ctrl.readPktSize::0                   0                       # Read request sizes (log2) (Count)
system.dcache_ctrl.readPktSize::1                   0                       # Read request sizes (log2) (Count)
system.dcache_ctrl.readPktSize::2                   0                       # Read request sizes (log2) (Count)
system.dcache_ctrl.readPktSize::3                   0                       # Read request sizes (log2) (Count)
system.dcache_ctrl.readPktSize::4                   0                       # Read request sizes (log2) (Count)
system.dcache_ctrl.readPktSize::5                   0                       # Read request sizes (log2) (Count)
system.dcache_ctrl.readPktSize::6                   0                       # Read request sizes (log2) (Count)
system.dcache_ctrl.writePktSize::0                  0                       # Write request sizes (log2) (Count)
system.dcache_ctrl.writePktSize::1                  0                       # Write request sizes (log2) (Count)
system.dcache_ctrl.writePktSize::2                  0                       # Write request sizes (log2) (Count)
system.dcache_ctrl.writePktSize::3                  0                       # Write request sizes (log2) (Count)
system.dcache_ctrl.writePktSize::4                  0                       # Write request sizes (log2) (Count)
system.dcache_ctrl.writePktSize::5                  0                       # Write request sizes (log2) (Count)
system.dcache_ctrl.writePktSize::6                  0                       # Write request sizes (log2) (Count)
system.dcache_ctrl.rdQLenPdf::0                     0                       # What read queue length does an incoming req see (Count)
system.dcache_ctrl.rdQLenPdf::1                     0                       # What read queue length does an incoming req see (Count)
system.dcache_ctrl.rdQLenPdf::2                     0                       # What read queue length does an incoming req see (Count)
system.dcache_ctrl.rdQLenPdf::3                     0                       # What read queue length does an incoming req see (Count)
system.dcache_ctrl.rdQLenPdf::4                     0                       # What read queue length does an incoming req see (Count)
system.dcache_ctrl.rdQLenPdf::5                     0                       # What read queue length does an incoming req see (Count)
system.dcache_ctrl.rdQLenPdf::6                     0                       # What read queue length does an incoming req see (Count)
system.dcache_ctrl.rdQLenPdf::7                     0                       # What read queue length does an incoming req see (Count)
system.dcache_ctrl.rdQLenPdf::8                     0                       # What read queue length does an incoming req see (Count)
system.dcache_ctrl.rdQLenPdf::9                     0                       # What read queue length does an incoming req see (Count)
system.dcache_ctrl.rdQLenPdf::10                    0                       # What read queue length does an incoming req see (Count)
system.dcache_ctrl.rdQLenPdf::11                    0                       # What read queue length does an incoming req see (Count)
system.dcache_ctrl.rdQLenPdf::12                    0                       # What read queue length does an incoming req see (Count)
system.dcache_ctrl.rdQLenPdf::13                    0                       # What read queue length does an incoming req see (Count)
system.dcache_ctrl.rdQLenPdf::14                    0                       # What read queue length does an incoming req see (Count)
system.dcache_ctrl.rdQLenPdf::15                    0                       # What read queue length does an incoming req see (Count)
system.dcache_ctrl.rdQLenPdf::16                    0                       # What read queue length does an incoming req see (Count)
system.dcache_ctrl.rdQLenPdf::17                    0                       # What read queue length does an incoming req see (Count)
system.dcache_ctrl.rdQLenPdf::18                    0                       # What read queue length does an incoming req see (Count)
system.dcache_ctrl.rdQLenPdf::19                    0                       # What read queue length does an incoming req see (Count)
system.dcache_ctrl.rdQLenPdf::20                    0                       # What read queue length does an incoming req see (Count)
system.dcache_ctrl.rdQLenPdf::21                    0                       # What read queue length does an incoming req see (Count)
system.dcache_ctrl.rdQLenPdf::22                    0                       # What read queue length does an incoming req see (Count)
system.dcache_ctrl.rdQLenPdf::23                    0                       # What read queue length does an incoming req see (Count)
system.dcache_ctrl.rdQLenPdf::24                    0                       # What read queue length does an incoming req see (Count)
system.dcache_ctrl.rdQLenPdf::25                    0                       # What read queue length does an incoming req see (Count)
system.dcache_ctrl.rdQLenPdf::26                    0                       # What read queue length does an incoming req see (Count)
system.dcache_ctrl.rdQLenPdf::27                    0                       # What read queue length does an incoming req see (Count)
system.dcache_ctrl.rdQLenPdf::28                    0                       # What read queue length does an incoming req see (Count)
system.dcache_ctrl.rdQLenPdf::29                    0                       # What read queue length does an incoming req see (Count)
system.dcache_ctrl.rdQLenPdf::30                    0                       # What read queue length does an incoming req see (Count)
system.dcache_ctrl.rdQLenPdf::31                    0                       # What read queue length does an incoming req see (Count)
system.dcache_ctrl.rdQLenPdf::32                    0                       # What read queue length does an incoming req see (Count)
system.dcache_ctrl.rdQLenPdf::33                    0                       # What read queue length does an incoming req see (Count)
system.dcache_ctrl.rdQLenPdf::34                    0                       # What read queue length does an incoming req see (Count)
system.dcache_ctrl.rdQLenPdf::35                    0                       # What read queue length does an incoming req see (Count)
system.dcache_ctrl.rdQLenPdf::36                    0                       # What read queue length does an incoming req see (Count)
system.dcache_ctrl.rdQLenPdf::37                    0                       # What read queue length does an incoming req see (Count)
system.dcache_ctrl.rdQLenPdf::38                    0                       # What read queue length does an incoming req see (Count)
system.dcache_ctrl.rdQLenPdf::39                    0                       # What read queue length does an incoming req see (Count)
system.dcache_ctrl.rdQLenPdf::40                    0                       # What read queue length does an incoming req see (Count)
system.dcache_ctrl.rdQLenPdf::41                    0                       # What read queue length does an incoming req see (Count)
system.dcache_ctrl.rdQLenPdf::42                    0                       # What read queue length does an incoming req see (Count)
system.dcache_ctrl.rdQLenPdf::43                    0                       # What read queue length does an incoming req see (Count)
system.dcache_ctrl.rdQLenPdf::44                    0                       # What read queue length does an incoming req see (Count)
system.dcache_ctrl.rdQLenPdf::45                    0                       # What read queue length does an incoming req see (Count)
system.dcache_ctrl.rdQLenPdf::46                    0                       # What read queue length does an incoming req see (Count)
system.dcache_ctrl.rdQLenPdf::47                    0                       # What read queue length does an incoming req see (Count)
system.dcache_ctrl.rdQLenPdf::48                    0                       # What read queue length does an incoming req see (Count)
system.dcache_ctrl.rdQLenPdf::49                    0                       # What read queue length does an incoming req see (Count)
system.dcache_ctrl.rdQLenPdf::50                    0                       # What read queue length does an incoming req see (Count)
system.dcache_ctrl.rdQLenPdf::51                    0                       # What read queue length does an incoming req see (Count)
system.dcache_ctrl.rdQLenPdf::52                    0                       # What read queue length does an incoming req see (Count)
system.dcache_ctrl.rdQLenPdf::53                    0                       # What read queue length does an incoming req see (Count)
system.dcache_ctrl.rdQLenPdf::54                    0                       # What read queue length does an incoming req see (Count)
system.dcache_ctrl.rdQLenPdf::55                    0                       # What read queue length does an incoming req see (Count)
system.dcache_ctrl.rdQLenPdf::56                    0                       # What read queue length does an incoming req see (Count)
system.dcache_ctrl.rdQLenPdf::57                    0                       # What read queue length does an incoming req see (Count)
system.dcache_ctrl.rdQLenPdf::58                    0                       # What read queue length does an incoming req see (Count)
system.dcache_ctrl.rdQLenPdf::59                    0                       # What read queue length does an incoming req see (Count)
system.dcache_ctrl.rdQLenPdf::60                    0                       # What read queue length does an incoming req see (Count)
system.dcache_ctrl.rdQLenPdf::61                    0                       # What read queue length does an incoming req see (Count)
system.dcache_ctrl.rdQLenPdf::62                    0                       # What read queue length does an incoming req see (Count)
system.dcache_ctrl.rdQLenPdf::63                    0                       # What read queue length does an incoming req see (Count)
system.dcache_ctrl.wrQLenPdf::0                     0                       # What write queue length does an incoming req see (Count)
system.dcache_ctrl.wrQLenPdf::1                     0                       # What write queue length does an incoming req see (Count)
system.dcache_ctrl.wrQLenPdf::2                     0                       # What write queue length does an incoming req see (Count)
system.dcache_ctrl.wrQLenPdf::3                     0                       # What write queue length does an incoming req see (Count)
system.dcache_ctrl.wrQLenPdf::4                     0                       # What write queue length does an incoming req see (Count)
system.dcache_ctrl.wrQLenPdf::5                     0                       # What write queue length does an incoming req see (Count)
system.dcache_ctrl.wrQLenPdf::6                     0                       # What write queue length does an incoming req see (Count)
system.dcache_ctrl.wrQLenPdf::7                     0                       # What write queue length does an incoming req see (Count)
system.dcache_ctrl.wrQLenPdf::8                     0                       # What write queue length does an incoming req see (Count)
system.dcache_ctrl.wrQLenPdf::9                     0                       # What write queue length does an incoming req see (Count)
system.dcache_ctrl.wrQLenPdf::10                    0                       # What write queue length does an incoming req see (Count)
system.dcache_ctrl.wrQLenPdf::11                    0                       # What write queue length does an incoming req see (Count)
system.dcache_ctrl.wrQLenPdf::12                    0                       # What write queue length does an incoming req see (Count)
system.dcache_ctrl.wrQLenPdf::13                    0                       # What write queue length does an incoming req see (Count)
system.dcache_ctrl.wrQLenPdf::14                    0                       # What write queue length does an incoming req see (Count)
system.dcache_ctrl.wrQLenPdf::15                    0                       # What write queue length does an incoming req see (Count)
system.dcache_ctrl.wrQLenPdf::16                    0                       # What write queue length does an incoming req see (Count)
system.dcache_ctrl.wrQLenPdf::17                    0                       # What write queue length does an incoming req see (Count)
system.dcache_ctrl.wrQLenPdf::18                    0                       # What write queue length does an incoming req see (Count)
system.dcache_ctrl.wrQLenPdf::19                    0                       # What write queue length does an incoming req see (Count)
system.dcache_ctrl.wrQLenPdf::20                    0                       # What write queue length does an incoming req see (Count)
system.dcache_ctrl.wrQLenPdf::21                    0                       # What write queue length does an incoming req see (Count)
system.dcache_ctrl.wrQLenPdf::22                    0                       # What write queue length does an incoming req see (Count)
system.dcache_ctrl.wrQLenPdf::23                    0                       # What write queue length does an incoming req see (Count)
system.dcache_ctrl.wrQLenPdf::24                    0                       # What write queue length does an incoming req see (Count)
system.dcache_ctrl.wrQLenPdf::25                    0                       # What write queue length does an incoming req see (Count)
system.dcache_ctrl.wrQLenPdf::26                    0                       # What write queue length does an incoming req see (Count)
system.dcache_ctrl.wrQLenPdf::27                    0                       # What write queue length does an incoming req see (Count)
system.dcache_ctrl.wrQLenPdf::28                    0                       # What write queue length does an incoming req see (Count)
system.dcache_ctrl.wrQLenPdf::29                    0                       # What write queue length does an incoming req see (Count)
system.dcache_ctrl.wrQLenPdf::30                    0                       # What write queue length does an incoming req see (Count)
system.dcache_ctrl.wrQLenPdf::31                    0                       # What write queue length does an incoming req see (Count)
system.dcache_ctrl.wrQLenPdf::32                    0                       # What write queue length does an incoming req see (Count)
system.dcache_ctrl.wrQLenPdf::33                    0                       # What write queue length does an incoming req see (Count)
system.dcache_ctrl.wrQLenPdf::34                    0                       # What write queue length does an incoming req see (Count)
system.dcache_ctrl.wrQLenPdf::35                    0                       # What write queue length does an incoming req see (Count)
system.dcache_ctrl.wrQLenPdf::36                    0                       # What write queue length does an incoming req see (Count)
system.dcache_ctrl.wrQLenPdf::37                    0                       # What write queue length does an incoming req see (Count)
system.dcache_ctrl.wrQLenPdf::38                    0                       # What write queue length does an incoming req see (Count)
system.dcache_ctrl.wrQLenPdf::39                    0                       # What write queue length does an incoming req see (Count)
system.dcache_ctrl.wrQLenPdf::40                    0                       # What write queue length does an incoming req see (Count)
system.dcache_ctrl.wrQLenPdf::41                    0                       # What write queue length does an incoming req see (Count)
system.dcache_ctrl.wrQLenPdf::42                    0                       # What write queue length does an incoming req see (Count)
system.dcache_ctrl.wrQLenPdf::43                    0                       # What write queue length does an incoming req see (Count)
system.dcache_ctrl.wrQLenPdf::44                    0                       # What write queue length does an incoming req see (Count)
system.dcache_ctrl.wrQLenPdf::45                    0                       # What write queue length does an incoming req see (Count)
system.dcache_ctrl.wrQLenPdf::46                    0                       # What write queue length does an incoming req see (Count)
system.dcache_ctrl.wrQLenPdf::47                    0                       # What write queue length does an incoming req see (Count)
system.dcache_ctrl.wrQLenPdf::48                    0                       # What write queue length does an incoming req see (Count)
system.dcache_ctrl.wrQLenPdf::49                    0                       # What write queue length does an incoming req see (Count)
system.dcache_ctrl.wrQLenPdf::50                    0                       # What write queue length does an incoming req see (Count)
system.dcache_ctrl.wrQLenPdf::51                    0                       # What write queue length does an incoming req see (Count)
system.dcache_ctrl.wrQLenPdf::52                    0                       # What write queue length does an incoming req see (Count)
system.dcache_ctrl.wrQLenPdf::53                    0                       # What write queue length does an incoming req see (Count)
system.dcache_ctrl.wrQLenPdf::54                    0                       # What write queue length does an incoming req see (Count)
system.dcache_ctrl.wrQLenPdf::55                    0                       # What write queue length does an incoming req see (Count)
system.dcache_ctrl.wrQLenPdf::56                    0                       # What write queue length does an incoming req see (Count)
system.dcache_ctrl.wrQLenPdf::57                    0                       # What write queue length does an incoming req see (Count)
system.dcache_ctrl.wrQLenPdf::58                    0                       # What write queue length does an incoming req see (Count)
system.dcache_ctrl.wrQLenPdf::59                    0                       # What write queue length does an incoming req see (Count)
system.dcache_ctrl.wrQLenPdf::60                    0                       # What write queue length does an incoming req see (Count)
system.dcache_ctrl.wrQLenPdf::61                    0                       # What write queue length does an incoming req see (Count)
system.dcache_ctrl.wrQLenPdf::62                    0                       # What write queue length does an incoming req see (Count)
system.dcache_ctrl.wrQLenPdf::63                    0                       # What write queue length does an incoming req see (Count)
system.dcache_ctrl.bytesReadWrQ                     0                       # Total number of bytes read from write queue (Byte)
system.dcache_ctrl.bytesReadSys                     0                       # Total read bytes from the system interface side (Byte)
system.dcache_ctrl.bytesWrittenSys                  0                       # Total written bytes from the system interface side (Byte)
system.dcache_ctrl.avgRdBWSys              0.00000000                       # Average system read bandwidth in Byte/s ((Byte/Second))
system.dcache_ctrl.avgWrBWSys              0.00000000                       # Average system write bandwidth in Byte/s ((Byte/Second))
system.dcache_ctrl.totGap                           0                       # Total gap between requests (Tick)
system.dcache_ctrl.avgGap                         nan                       # Average gap between requests ((Tick/Count))
system.dcache_ctrl.requestorReadBytes::generator      7018816                       # Per-requestor bytes read from memory (Byte)
system.dcache_ctrl.requestorWriteBytes::generator      7003392                       # Per-requestor bytes write to memory (Byte)
system.dcache_ctrl.requestorReadRate::generator 7018816000.000000000000                       # Per-requestor bytes read from memory rate ((Byte/Second))
system.dcache_ctrl.requestorWriteRate::generator 7003392000.000000000000                       # Per-requestor bytes write to memory rate ((Byte/Second))
system.dcache_ctrl.requestorReadTotalLat::generator 249369874250                       # Per-requestor read total memory access latency (Tick)
system.dcache_ctrl.requestorWriteTotalLat::generator 514768731250                       # Per-requestor write total memory access latency (Tick)
system.dcache_ctrl.requestorReadAvgLat::generator          inf                       # Per-requestor read average memory access latency ((Tick/Count))
system.dcache_ctrl.requestorWriteAvgLat::generator          inf                       # Per-requestor write average memory access latency ((Tick/Count))
system.dcache_ctrl.readReqs                    109940                       # Number of read requests accepted (Count)
system.dcache_ctrl.writeReqs                        0                       # Number of write requests accepted (Count)
system.dcache_ctrl.readBursts                  109940                       # Number of controller read bursts, including those serviced by the write queue (Count)
system.dcache_ctrl.writeBursts                      0                       # Number of controller write bursts, including those merged in the write queue (Count)
system.dcache_ctrl.servicedByWrQ                    0                       # Number of controller read bursts serviced by the write queue (Count)
system.dcache_ctrl.mergedWrBursts                   0                       # Number of controller write bursts merged with an existing one (Count)
system.dcache_ctrl.neitherReadNorWriteReqs            0                       # Number of requests that are neither read nor write (Count)
system.dcache_ctrl.avgRdQLen                     0.00                       # Average read queue length when enqueuing ((Count/Tick))
system.dcache_ctrl.avgWrQLen                     0.00                       # Average write queue length when enqueuing ((Count/Tick))
system.dcache_ctrl.numRdRetry                  108184                       # Number of times read queue was full causing retry (Count)
system.dcache_ctrl.numWrRetry                       0                       # Number of times write queue was full causing retry (Count)
system.dcache_ctrl.readPktSize::0                   0                       # Read request sizes (log2) (Count)
system.dcache_ctrl.readPktSize::1                   0                       # Read request sizes (log2) (Count)
system.dcache_ctrl.readPktSize::2                   0                       # Read request sizes (log2) (Count)
system.dcache_ctrl.readPktSize::3                   0                       # Read request sizes (log2) (Count)
system.dcache_ctrl.readPktSize::4                   0                       # Read request sizes (log2) (Count)
system.dcache_ctrl.readPktSize::5              109940                       # Read request sizes (log2) (Count)
system.dcache_ctrl.readPktSize::6                   0                       # Read request sizes (log2) (Count)
system.dcache_ctrl.writePktSize::0                  0                       # Write request sizes (log2) (Count)
system.dcache_ctrl.writePktSize::1                  0                       # Write request sizes (log2) (Count)
system.dcache_ctrl.writePktSize::2                  0                       # Write request sizes (log2) (Count)
system.dcache_ctrl.writePktSize::3                  0                       # Write request sizes (log2) (Count)
system.dcache_ctrl.writePktSize::4                  0                       # Write request sizes (log2) (Count)
system.dcache_ctrl.writePktSize::5                  0                       # Write request sizes (log2) (Count)
system.dcache_ctrl.writePktSize::6                  0                       # Write request sizes (log2) (Count)
system.dcache_ctrl.rdQLenPdf::0                     0                       # What read queue length does an incoming req see (Count)
system.dcache_ctrl.rdQLenPdf::1                     0                       # What read queue length does an incoming req see (Count)
system.dcache_ctrl.rdQLenPdf::2                     0                       # What read queue length does an incoming req see (Count)
system.dcache_ctrl.rdQLenPdf::3                     0                       # What read queue length does an incoming req see (Count)
system.dcache_ctrl.rdQLenPdf::4                     0                       # What read queue length does an incoming req see (Count)
system.dcache_ctrl.rdQLenPdf::5                     0                       # What read queue length does an incoming req see (Count)
system.dcache_ctrl.rdQLenPdf::6                     0                       # What read queue length does an incoming req see (Count)
system.dcache_ctrl.rdQLenPdf::7                     0                       # What read queue length does an incoming req see (Count)
system.dcache_ctrl.rdQLenPdf::8                     0                       # What read queue length does an incoming req see (Count)
system.dcache_ctrl.rdQLenPdf::9                     0                       # What read queue length does an incoming req see (Count)
system.dcache_ctrl.rdQLenPdf::10                    0                       # What read queue length does an incoming req see (Count)
system.dcache_ctrl.rdQLenPdf::11                    0                       # What read queue length does an incoming req see (Count)
system.dcache_ctrl.rdQLenPdf::12                    0                       # What read queue length does an incoming req see (Count)
system.dcache_ctrl.rdQLenPdf::13                    0                       # What read queue length does an incoming req see (Count)
system.dcache_ctrl.rdQLenPdf::14                    0                       # What read queue length does an incoming req see (Count)
system.dcache_ctrl.rdQLenPdf::15                    0                       # What read queue length does an incoming req see (Count)
system.dcache_ctrl.rdQLenPdf::16                    0                       # What read queue length does an incoming req see (Count)
system.dcache_ctrl.rdQLenPdf::17                    0                       # What read queue length does an incoming req see (Count)
system.dcache_ctrl.rdQLenPdf::18                    0                       # What read queue length does an incoming req see (Count)
system.dcache_ctrl.rdQLenPdf::19                    0                       # What read queue length does an incoming req see (Count)
system.dcache_ctrl.rdQLenPdf::20                    0                       # What read queue length does an incoming req see (Count)
system.dcache_ctrl.rdQLenPdf::21                    0                       # What read queue length does an incoming req see (Count)
system.dcache_ctrl.rdQLenPdf::22                    0                       # What read queue length does an incoming req see (Count)
system.dcache_ctrl.rdQLenPdf::23                    0                       # What read queue length does an incoming req see (Count)
system.dcache_ctrl.rdQLenPdf::24                    0                       # What read queue length does an incoming req see (Count)
system.dcache_ctrl.rdQLenPdf::25                    0                       # What read queue length does an incoming req see (Count)
system.dcache_ctrl.rdQLenPdf::26                    0                       # What read queue length does an incoming req see (Count)
system.dcache_ctrl.rdQLenPdf::27                    0                       # What read queue length does an incoming req see (Count)
system.dcache_ctrl.rdQLenPdf::28                    0                       # What read queue length does an incoming req see (Count)
system.dcache_ctrl.rdQLenPdf::29                    0                       # What read queue length does an incoming req see (Count)
system.dcache_ctrl.rdQLenPdf::30                    0                       # What read queue length does an incoming req see (Count)
system.dcache_ctrl.rdQLenPdf::31                    0                       # What read queue length does an incoming req see (Count)
system.dcache_ctrl.rdQLenPdf::32                    0                       # What read queue length does an incoming req see (Count)
system.dcache_ctrl.rdQLenPdf::33                    0                       # What read queue length does an incoming req see (Count)
system.dcache_ctrl.rdQLenPdf::34                    0                       # What read queue length does an incoming req see (Count)
system.dcache_ctrl.rdQLenPdf::35                    0                       # What read queue length does an incoming req see (Count)
system.dcache_ctrl.rdQLenPdf::36                    0                       # What read queue length does an incoming req see (Count)
system.dcache_ctrl.rdQLenPdf::37                    0                       # What read queue length does an incoming req see (Count)
system.dcache_ctrl.rdQLenPdf::38                    0                       # What read queue length does an incoming req see (Count)
system.dcache_ctrl.rdQLenPdf::39                    0                       # What read queue length does an incoming req see (Count)
system.dcache_ctrl.rdQLenPdf::40                    0                       # What read queue length does an incoming req see (Count)
system.dcache_ctrl.rdQLenPdf::41                    0                       # What read queue length does an incoming req see (Count)
system.dcache_ctrl.rdQLenPdf::42                    0                       # What read queue length does an incoming req see (Count)
system.dcache_ctrl.rdQLenPdf::43                    0                       # What read queue length does an incoming req see (Count)
system.dcache_ctrl.rdQLenPdf::44                    0                       # What read queue length does an incoming req see (Count)
system.dcache_ctrl.rdQLenPdf::45                    0                       # What read queue length does an incoming req see (Count)
system.dcache_ctrl.rdQLenPdf::46                    0                       # What read queue length does an incoming req see (Count)
system.dcache_ctrl.rdQLenPdf::47                    0                       # What read queue length does an incoming req see (Count)
system.dcache_ctrl.rdQLenPdf::48                    0                       # What read queue length does an incoming req see (Count)
system.dcache_ctrl.rdQLenPdf::49                    0                       # What read queue length does an incoming req see (Count)
system.dcache_ctrl.rdQLenPdf::50                    0                       # What read queue length does an incoming req see (Count)
system.dcache_ctrl.rdQLenPdf::51                    0                       # What read queue length does an incoming req see (Count)
system.dcache_ctrl.rdQLenPdf::52                    0                       # What read queue length does an incoming req see (Count)
system.dcache_ctrl.rdQLenPdf::53                    0                       # What read queue length does an incoming req see (Count)
system.dcache_ctrl.rdQLenPdf::54                    0                       # What read queue length does an incoming req see (Count)
system.dcache_ctrl.rdQLenPdf::55                    0                       # What read queue length does an incoming req see (Count)
system.dcache_ctrl.rdQLenPdf::56                    0                       # What read queue length does an incoming req see (Count)
system.dcache_ctrl.rdQLenPdf::57                    0                       # What read queue length does an incoming req see (Count)
system.dcache_ctrl.rdQLenPdf::58                    0                       # What read queue length does an incoming req see (Count)
system.dcache_ctrl.rdQLenPdf::59                    0                       # What read queue length does an incoming req see (Count)
system.dcache_ctrl.rdQLenPdf::60                    0                       # What read queue length does an incoming req see (Count)
system.dcache_ctrl.rdQLenPdf::61                    0                       # What read queue length does an incoming req see (Count)
system.dcache_ctrl.rdQLenPdf::62                    0                       # What read queue length does an incoming req see (Count)
system.dcache_ctrl.rdQLenPdf::63                    0                       # What read queue length does an incoming req see (Count)
system.dcache_ctrl.wrQLenPdf::0                     0                       # What write queue length does an incoming req see (Count)
system.dcache_ctrl.wrQLenPdf::1                     0                       # What write queue length does an incoming req see (Count)
system.dcache_ctrl.wrQLenPdf::2                     0                       # What write queue length does an incoming req see (Count)
system.dcache_ctrl.wrQLenPdf::3                     0                       # What write queue length does an incoming req see (Count)
system.dcache_ctrl.wrQLenPdf::4                     0                       # What write queue length does an incoming req see (Count)
system.dcache_ctrl.wrQLenPdf::5                     0                       # What write queue length does an incoming req see (Count)
system.dcache_ctrl.wrQLenPdf::6                     0                       # What write queue length does an incoming req see (Count)
system.dcache_ctrl.wrQLenPdf::7                     0                       # What write queue length does an incoming req see (Count)
system.dcache_ctrl.wrQLenPdf::8                     0                       # What write queue length does an incoming req see (Count)
system.dcache_ctrl.wrQLenPdf::9                     0                       # What write queue length does an incoming req see (Count)
system.dcache_ctrl.wrQLenPdf::10                    0                       # What write queue length does an incoming req see (Count)
system.dcache_ctrl.wrQLenPdf::11                    0                       # What write queue length does an incoming req see (Count)
system.dcache_ctrl.wrQLenPdf::12                    0                       # What write queue length does an incoming req see (Count)
system.dcache_ctrl.wrQLenPdf::13                    0                       # What write queue length does an incoming req see (Count)
system.dcache_ctrl.wrQLenPdf::14                    0                       # What write queue length does an incoming req see (Count)
system.dcache_ctrl.wrQLenPdf::15                    0                       # What write queue length does an incoming req see (Count)
system.dcache_ctrl.wrQLenPdf::16                    0                       # What write queue length does an incoming req see (Count)
system.dcache_ctrl.wrQLenPdf::17                    0                       # What write queue length does an incoming req see (Count)
system.dcache_ctrl.wrQLenPdf::18                    0                       # What write queue length does an incoming req see (Count)
system.dcache_ctrl.wrQLenPdf::19                    0                       # What write queue length does an incoming req see (Count)
system.dcache_ctrl.wrQLenPdf::20                    0                       # What write queue length does an incoming req see (Count)
system.dcache_ctrl.wrQLenPdf::21                    0                       # What write queue length does an incoming req see (Count)
system.dcache_ctrl.wrQLenPdf::22                    0                       # What write queue length does an incoming req see (Count)
system.dcache_ctrl.wrQLenPdf::23                    0                       # What write queue length does an incoming req see (Count)
system.dcache_ctrl.wrQLenPdf::24                    0                       # What write queue length does an incoming req see (Count)
system.dcache_ctrl.wrQLenPdf::25                    0                       # What write queue length does an incoming req see (Count)
system.dcache_ctrl.wrQLenPdf::26                    0                       # What write queue length does an incoming req see (Count)
system.dcache_ctrl.wrQLenPdf::27                    0                       # What write queue length does an incoming req see (Count)
system.dcache_ctrl.wrQLenPdf::28                    0                       # What write queue length does an incoming req see (Count)
system.dcache_ctrl.wrQLenPdf::29                    0                       # What write queue length does an incoming req see (Count)
system.dcache_ctrl.wrQLenPdf::30                    0                       # What write queue length does an incoming req see (Count)
system.dcache_ctrl.wrQLenPdf::31                    0                       # What write queue length does an incoming req see (Count)
system.dcache_ctrl.wrQLenPdf::32                    0                       # What write queue length does an incoming req see (Count)
system.dcache_ctrl.wrQLenPdf::33                    0                       # What write queue length does an incoming req see (Count)
system.dcache_ctrl.wrQLenPdf::34                    0                       # What write queue length does an incoming req see (Count)
system.dcache_ctrl.wrQLenPdf::35                    0                       # What write queue length does an incoming req see (Count)
system.dcache_ctrl.wrQLenPdf::36                    0                       # What write queue length does an incoming req see (Count)
system.dcache_ctrl.wrQLenPdf::37                    0                       # What write queue length does an incoming req see (Count)
system.dcache_ctrl.wrQLenPdf::38                    0                       # What write queue length does an incoming req see (Count)
system.dcache_ctrl.wrQLenPdf::39                    0                       # What write queue length does an incoming req see (Count)
system.dcache_ctrl.wrQLenPdf::40                    0                       # What write queue length does an incoming req see (Count)
system.dcache_ctrl.wrQLenPdf::41                    0                       # What write queue length does an incoming req see (Count)
system.dcache_ctrl.wrQLenPdf::42                    0                       # What write queue length does an incoming req see (Count)
system.dcache_ctrl.wrQLenPdf::43                    0                       # What write queue length does an incoming req see (Count)
system.dcache_ctrl.wrQLenPdf::44                    0                       # What write queue length does an incoming req see (Count)
system.dcache_ctrl.wrQLenPdf::45                    0                       # What write queue length does an incoming req see (Count)
system.dcache_ctrl.wrQLenPdf::46                    0                       # What write queue length does an incoming req see (Count)
system.dcache_ctrl.wrQLenPdf::47                    0                       # What write queue length does an incoming req see (Count)
system.dcache_ctrl.wrQLenPdf::48                    0                       # What write queue length does an incoming req see (Count)
system.dcache_ctrl.wrQLenPdf::49                    0                       # What write queue length does an incoming req see (Count)
system.dcache_ctrl.wrQLenPdf::50                    0                       # What write queue length does an incoming req see (Count)
system.dcache_ctrl.wrQLenPdf::51                    0                       # What write queue length does an incoming req see (Count)
system.dcache_ctrl.wrQLenPdf::52                    0                       # What write queue length does an incoming req see (Count)
system.dcache_ctrl.wrQLenPdf::53                    0                       # What write queue length does an incoming req see (Count)
system.dcache_ctrl.wrQLenPdf::54                    0                       # What write queue length does an incoming req see (Count)
system.dcache_ctrl.wrQLenPdf::55                    0                       # What write queue length does an incoming req see (Count)
system.dcache_ctrl.wrQLenPdf::56                    0                       # What write queue length does an incoming req see (Count)
system.dcache_ctrl.wrQLenPdf::57                    0                       # What write queue length does an incoming req see (Count)
system.dcache_ctrl.wrQLenPdf::58                    0                       # What write queue length does an incoming req see (Count)
system.dcache_ctrl.wrQLenPdf::59                    0                       # What write queue length does an incoming req see (Count)
system.dcache_ctrl.wrQLenPdf::60                    0                       # What write queue length does an incoming req see (Count)
system.dcache_ctrl.wrQLenPdf::61                    0                       # What write queue length does an incoming req see (Count)
system.dcache_ctrl.wrQLenPdf::62                    0                       # What write queue length does an incoming req see (Count)
system.dcache_ctrl.wrQLenPdf::63                    0                       # What write queue length does an incoming req see (Count)
system.dcache_ctrl.bytesReadWrQ                     0                       # Total number of bytes read from write queue (Byte)
system.dcache_ctrl.bytesReadSys                     0                       # Total read bytes from the system interface side (Byte)
system.dcache_ctrl.bytesWrittenSys                  0                       # Total written bytes from the system interface side (Byte)
system.dcache_ctrl.avgRdBWSys              0.00000000                       # Average system read bandwidth in Byte/s ((Byte/Second))
system.dcache_ctrl.avgWrBWSys              0.00000000                       # Average system write bandwidth in Byte/s ((Byte/Second))
system.dcache_ctrl.totGap                   999999000                       # Total gap between requests (Tick)
system.dcache_ctrl.avgGap                     9095.86                       # Average gap between requests ((Tick/Count))
system.dcache_ctrl.requestorReadAccesses::generator       109940                       # Per-requestor read serviced memory accesses (Count)
system.dcache_ctrl.requestorReadAvgLat::generator         0.00                       # Per-requestor read average memory access latency ((Tick/Count))
system.dcache_ctrl.numWrBacks                  109669                       # Total number of write backs from DRAM cache to main memory (Unspecified)
system.dcache_ctrl.totNumConf                       5                       # Total number of packets conflicted on DRAM cache (Unspecified)
system.dcache_ctrl.totNumConfBufFull                0                       # Total number of packets conflicted yet couldn't enter confBuffer (Unspecified)
system.dcache_ctrl.maxNumConf                       1                       # Maximum number of packets conflicted on DRAM cache (Unspecified)
system.dcache_ctrl.maxLocRdEvQ                    384                       # Maximum number of packets in locMemReadEvent concurrently (Unspecified)
system.dcache_ctrl.maxLocRdRespEvQ                 15                       # Maximum number of packets in locMemReadRespEvent concurrently (Unspecified)
system.dcache_ctrl.maxLocWrEvQ                    322                       # Maximum number of packets in locMemRWriteEvent concurrently (Unspecified)
system.dcache_ctrl.maxFarRdEvQ                    276                       # Maximum number of packets in farMemReadEvent concurrently (Unspecified)
system.dcache_ctrl.maxFarRdRespEvQ                  0                       # Maximum number of packets in farMemReadRespEvent concurrently (Unspecified)
system.dcache_ctrl.maxFarWrEvQ                    301                       # Maximum number of packets in farMemWriteEvent concurrently (Unspecified)
system.dcache_ctrl.rdToWrTurnAround               855                       # Maximum number of packets in farMemReadRespEvent concurrently (Unspecified)
system.dcache_ctrl.wrToRdTurnAround               854                       # Maximum number of packets in farMemWriteEvent concurrently (Unspecified)
system.dcache_ctrl.sentRdPort                  109669                       # Number of read packets successfully sent through the request port to the far memory. (Unspecified)
system.dcache_ctrl.failedRdPort                 94030                       # Number of read packets failed to be sent through the request port to the far memory. (Unspecified)
system.dcache_ctrl.sentWrPort                  109640                       # Number of write packets successfully sent through the request port to the far memory. (Unspecified)
system.dcache_ctrl.failedWrPort                133046                       # Number of write packets failed to be sent through the request port to the far memory. (Unspecified)
system.dcache_ctrl.totPktsServiceTime       514768624                       # Number of write packets failed to be sent through the request port to the far memory. (Unspecified)
system.dcache_ctrl.dram.readBursts             109669                       # Number of DRAM read bursts (Count)
system.dcache_ctrl.dram.writeBursts            109428                       # Number of DRAM write bursts (Count)
system.dcache_ctrl.dram.perBankRdBursts::0         6874                       # Per bank write bursts (Count)
system.dcache_ctrl.dram.perBankRdBursts::1         6876                       # Per bank write bursts (Count)
system.dcache_ctrl.dram.perBankRdBursts::2         6765                       # Per bank write bursts (Count)
system.dcache_ctrl.dram.perBankRdBursts::3         7049                       # Per bank write bursts (Count)
system.dcache_ctrl.dram.perBankRdBursts::4         6824                       # Per bank write bursts (Count)
system.dcache_ctrl.dram.perBankRdBursts::5         6944                       # Per bank write bursts (Count)
system.dcache_ctrl.dram.perBankRdBursts::6         6760                       # Per bank write bursts (Count)
system.dcache_ctrl.dram.perBankRdBursts::7         6979                       # Per bank write bursts (Count)
system.dcache_ctrl.dram.perBankRdBursts::8         6821                       # Per bank write bursts (Count)
system.dcache_ctrl.dram.perBankRdBursts::9         6863                       # Per bank write bursts (Count)
system.dcache_ctrl.dram.perBankRdBursts::10         6883                       # Per bank write bursts (Count)
system.dcache_ctrl.dram.perBankRdBursts::11         6786                       # Per bank write bursts (Count)
system.dcache_ctrl.dram.perBankRdBursts::12         6787                       # Per bank write bursts (Count)
system.dcache_ctrl.dram.perBankRdBursts::13         6820                       # Per bank write bursts (Count)
system.dcache_ctrl.dram.perBankRdBursts::14         6742                       # Per bank write bursts (Count)
system.dcache_ctrl.dram.perBankRdBursts::15         6896                       # Per bank write bursts (Count)
system.dcache_ctrl.dram.perBankWrBursts::0         6857                       # Per bank write bursts (Count)
system.dcache_ctrl.dram.perBankWrBursts::1         6858                       # Per bank write bursts (Count)
system.dcache_ctrl.dram.perBankWrBursts::2         6748                       # Per bank write bursts (Count)
system.dcache_ctrl.dram.perBankWrBursts::3         7035                       # Per bank write bursts (Count)
system.dcache_ctrl.dram.perBankWrBursts::4         6804                       # Per bank write bursts (Count)
system.dcache_ctrl.dram.perBankWrBursts::5         6924                       # Per bank write bursts (Count)
system.dcache_ctrl.dram.perBankWrBursts::6         6746                       # Per bank write bursts (Count)
system.dcache_ctrl.dram.perBankWrBursts::7         6964                       # Per bank write bursts (Count)
system.dcache_ctrl.dram.perBankWrBursts::8         6807                       # Per bank write bursts (Count)
system.dcache_ctrl.dram.perBankWrBursts::9         6850                       # Per bank write bursts (Count)
system.dcache_ctrl.dram.perBankWrBursts::10         6866                       # Per bank write bursts (Count)
system.dcache_ctrl.dram.perBankWrBursts::11         6775                       # Per bank write bursts (Count)
system.dcache_ctrl.dram.perBankWrBursts::12         6774                       # Per bank write bursts (Count)
system.dcache_ctrl.dram.perBankWrBursts::13         6802                       # Per bank write bursts (Count)
system.dcache_ctrl.dram.perBankWrBursts::14         6732                       # Per bank write bursts (Count)
system.dcache_ctrl.dram.perBankWrBursts::15         6886                       # Per bank write bursts (Count)
system.dcache_ctrl.dram.totQLat          247176494250                       # Total ticks spent queuing (Tick)
system.dcache_ctrl.dram.totBusLat           219338000                       # Total ticks spent in databus transfers (Tick)
system.dcache_ctrl.dram.totMemAccLat     249369874250                       # Total ticks spent from burst creation until serviced by the DRAM (Tick)
system.dcache_ctrl.dram.avgQLat            2253841.05                       # Average queueing delay per DRAM burst ((Tick/Count))
system.dcache_ctrl.dram.avgBusLat             2000.00                       # Average bus latency per DRAM burst ((Tick/Count))
system.dcache_ctrl.dram.avgMemAccLat       2273841.05                       # Average memory access latency per DRAM burst ((Tick/Count))
system.dcache_ctrl.dram.readRowHits                 0                       # Number of row buffer hits during reads (Count)
system.dcache_ctrl.dram.writeRowHits                0                       # Number of row buffer hits during writes (Count)
system.dcache_ctrl.dram.readRowHitRate           0.00                       # Row buffer hit rate for reads (Ratio)
system.dcache_ctrl.dram.writeRowHitRate          0.00                       # Row buffer hit rate for writes (Ratio)
system.dcache_ctrl.dram.bytesPerActivate::samples       219097                       # Bytes accessed per row activation (Byte)
system.dcache_ctrl.dram.bytesPerActivate::mean           32                       # Bytes accessed per row activation (Byte)
system.dcache_ctrl.dram.bytesPerActivate::gmean    32.000000                       # Bytes accessed per row activation (Byte)
system.dcache_ctrl.dram.bytesPerActivate::32-35       219097    100.00%    100.00% # Bytes accessed per row activation (Byte)
system.dcache_ctrl.dram.bytesPerActivate::total       219097                       # Bytes accessed per row activation (Byte)
system.dcache_ctrl.dram.bytesRead             3509408                       # Total bytes read (Byte)
system.dcache_ctrl.dram.bytesWritten          3501696                       # Total bytes written (Byte)
system.dcache_ctrl.dram.avgRdBW           3509.408000                       # Average DRAM read bandwidth in MiBytes/s ((Byte/Second))
system.dcache_ctrl.dram.avgWrBW           3501.696000                       # Average DRAM write bandwidth in MiBytes/s ((Byte/Second))
system.dcache_ctrl.dram.peakBW               16000.00                       # Theoretical peak bandwidth in MiByte/s ((Byte/Second))
system.dcache_ctrl.dram.busUtil                 43.82                       # Data bus utilization in percentage (Ratio)
system.dcache_ctrl.dram.busUtilRead             21.93                       # Data bus utilization in percentage for reads (Ratio)
system.dcache_ctrl.dram.busUtilWrite            21.89                       # Data bus utilization in percentage for writes (Ratio)
system.dcache_ctrl.dram.pageHitRate              0.00                       # Row buffer hit rate, read and write combined (Ratio)
system.dcache_ctrl.dram.power_state.pwrStateResidencyTicks::UNDEFINED   1000000000                       # Cumulative time (in ticks) in various power states (Tick)
system.dcache_ctrl.dram.rank0.actEnergy             0                       # Energy for activate commands per rank (pJ) (Joule)
system.dcache_ctrl.dram.rank0.preEnergy             0                       # Energy for precharge commands per rank (pJ) (Joule)
system.dcache_ctrl.dram.rank0.readEnergy            0                       # Energy for read commands per rank (pJ) (Joule)
system.dcache_ctrl.dram.rank0.writeEnergy            0                       # Energy for write commands per rank (pJ) (Joule)
system.dcache_ctrl.dram.rank0.refreshEnergy            0                       # Energy for refresh commands per rank (pJ) (Joule)
system.dcache_ctrl.dram.rank0.actBackEnergy            0                       # Energy for active background per rank (pJ) (Joule)
system.dcache_ctrl.dram.rank0.preBackEnergy            0                       # Energy for precharge background per rank (pJ) (Joule)
system.dcache_ctrl.dram.rank0.actPowerDownEnergy            0                       # Energy for active power-down per rank (pJ) (Joule)
system.dcache_ctrl.dram.rank0.prePowerDownEnergy            0                       # Energy for precharge power-down per rank (pJ) (Joule)
system.dcache_ctrl.dram.rank0.selfRefreshEnergy            0                       # Energy for self refresh per rank (pJ) (Joule)
system.dcache_ctrl.dram.rank0.totalEnergy            0                       # Total energy per rank (pJ) (Joule)
system.dcache_ctrl.dram.rank0.averagePower            0                       # Core power per rank (mW) (Watt)
system.dcache_ctrl.dram.rank0.totalIdleTime            0                       # Total Idle time Per DRAM Rank (Tick)
system.dcache_ctrl.dram.rank0.pwrStateTime::IDLE     45875000                       # Time in different power states (Tick)
system.dcache_ctrl.dram.rank0.pwrStateTime::REF     56540000                       # Time in different power states (Tick)
system.dcache_ctrl.dram.rank0.pwrStateTime::SREF            0                       # Time in different power states (Tick)
system.dcache_ctrl.dram.rank0.pwrStateTime::PRE_PDN            0                       # Time in different power states (Tick)
system.dcache_ctrl.dram.rank0.pwrStateTime::ACT    897585000                       # Time in different power states (Tick)
system.dcache_ctrl.dram.rank0.pwrStateTime::ACT_PDN            0                       # Time in different power states (Tick)
system.dcache_ctrl.far_memory.bytesRead::generator     14035264                       # Number of bytes read from this memory (Byte)
system.dcache_ctrl.far_memory.bytesRead::total     14035264                       # Number of bytes read from this memory (Byte)
system.dcache_ctrl.far_memory.bytesWritten::writebacks      7016960                       # Number of bytes written to this memory (Byte)
system.dcache_ctrl.far_memory.bytesWritten::total      7016960                       # Number of bytes written to this memory (Byte)
system.dcache_ctrl.far_memory.numReads::generator       219301                       # Number of read requests responded to by this memory (Count)
system.dcache_ctrl.far_memory.numReads::total       219301                       # Number of read requests responded to by this memory (Count)
system.dcache_ctrl.far_memory.numWrites::writebacks       109640                       # Number of write requests responded to by this memory (Count)
system.dcache_ctrl.far_memory.numWrites::total       109640                       # Number of write requests responded to by this memory (Count)
system.dcache_ctrl.far_memory.bwRead::generator  14035264000                       # Total read bandwidth from this memory ((Byte/Second))
system.dcache_ctrl.far_memory.bwRead::total  14035264000                       # Total read bandwidth from this memory ((Byte/Second))
system.dcache_ctrl.far_memory.bwWrite::writebacks   7016960000                       # Write bandwidth from this memory ((Byte/Second))
system.dcache_ctrl.far_memory.bwWrite::total   7016960000                       # Write bandwidth from this memory ((Byte/Second))
system.dcache_ctrl.far_memory.bwTotal::writebacks   7016960000                       # Total bandwidth to/from this memory ((Byte/Second))
system.dcache_ctrl.far_memory.bwTotal::generator  14035264000                       # Total bandwidth to/from this memory ((Byte/Second))
system.dcache_ctrl.far_memory.bwTotal::total  21052224000                       # Total bandwidth to/from this memory ((Byte/Second))
system.dcache_ctrl.far_memory.readBursts       109511                       # Number of DRAM read bursts (Count)
system.dcache_ctrl.far_memory.writeBursts       109512                       # Number of DRAM write bursts (Count)
system.dcache_ctrl.far_memory.perBankRdBursts::0         3446                       # Per bank write bursts (Count)
system.dcache_ctrl.far_memory.perBankRdBursts::1         3483                       # Per bank write bursts (Count)
system.dcache_ctrl.far_memory.perBankRdBursts::2         3535                       # Per bank write bursts (Count)
system.dcache_ctrl.far_memory.perBankRdBursts::3         3347                       # Per bank write bursts (Count)
system.dcache_ctrl.far_memory.perBankRdBursts::4         3499                       # Per bank write bursts (Count)
system.dcache_ctrl.far_memory.perBankRdBursts::5         3431                       # Per bank write bursts (Count)
system.dcache_ctrl.far_memory.perBankRdBursts::6         3411                       # Per bank write bursts (Count)
system.dcache_ctrl.far_memory.perBankRdBursts::7         3397                       # Per bank write bursts (Count)
system.dcache_ctrl.far_memory.perBankRdBursts::8         3329                       # Per bank write bursts (Count)
system.dcache_ctrl.far_memory.perBankRdBursts::9         3445                       # Per bank write bursts (Count)
system.dcache_ctrl.far_memory.perBankRdBursts::10         3460                       # Per bank write bursts (Count)
system.dcache_ctrl.far_memory.perBankRdBursts::11         3425                       # Per bank write bursts (Count)
system.dcache_ctrl.far_memory.perBankRdBursts::12         3519                       # Per bank write bursts (Count)
system.dcache_ctrl.far_memory.perBankRdBursts::13         3437                       # Per bank write bursts (Count)
system.dcache_ctrl.far_memory.perBankRdBursts::14         3365                       # Per bank write bursts (Count)
system.dcache_ctrl.far_memory.perBankRdBursts::15         3458                       # Per bank write bursts (Count)
system.dcache_ctrl.far_memory.perBankRdBursts::16         3502                       # Per bank write bursts (Count)
system.dcache_ctrl.far_memory.perBankRdBursts::17         3419                       # Per bank write bursts (Count)
system.dcache_ctrl.far_memory.perBankRdBursts::18         3394                       # Per bank write bursts (Count)
system.dcache_ctrl.far_memory.perBankRdBursts::19         3422                       # Per bank write bursts (Count)
system.dcache_ctrl.far_memory.perBankRdBursts::20         3451                       # Per bank write bursts (Count)
system.dcache_ctrl.far_memory.perBankRdBursts::21         3373                       # Per bank write bursts (Count)
system.dcache_ctrl.far_memory.perBankRdBursts::22         3423                       # Per bank write bursts (Count)
system.dcache_ctrl.far_memory.perBankRdBursts::23         3455                       # Per bank write bursts (Count)
system.dcache_ctrl.far_memory.perBankRdBursts::24         3448                       # Per bank write bursts (Count)
system.dcache_ctrl.far_memory.perBankRdBursts::25         3399                       # Per bank write bursts (Count)
system.dcache_ctrl.far_memory.perBankRdBursts::26         3394                       # Per bank write bursts (Count)
system.dcache_ctrl.far_memory.perBankRdBursts::27         3370                       # Per bank write bursts (Count)
system.dcache_ctrl.far_memory.perBankRdBursts::28         3386                       # Per bank write bursts (Count)
system.dcache_ctrl.far_memory.perBankRdBursts::29         3388                       # Per bank write bursts (Count)
system.dcache_ctrl.far_memory.perBankRdBursts::30         3422                       # Per bank write bursts (Count)
system.dcache_ctrl.far_memory.perBankRdBursts::31         3278                       # Per bank write bursts (Count)
system.dcache_ctrl.far_memory.perBankWrBursts::0         3445                       # Per bank write bursts (Count)
system.dcache_ctrl.far_memory.perBankWrBursts::1         3485                       # Per bank write bursts (Count)
system.dcache_ctrl.far_memory.perBankWrBursts::2         3531                       # Per bank write bursts (Count)
system.dcache_ctrl.far_memory.perBankWrBursts::3         3346                       # Per bank write bursts (Count)
system.dcache_ctrl.far_memory.perBankWrBursts::4         3497                       # Per bank write bursts (Count)
system.dcache_ctrl.far_memory.perBankWrBursts::5         3429                       # Per bank write bursts (Count)
system.dcache_ctrl.far_memory.perBankWrBursts::6         3413                       # Per bank write bursts (Count)
system.dcache_ctrl.far_memory.perBankWrBursts::7         3400                       # Per bank write bursts (Count)
system.dcache_ctrl.far_memory.perBankWrBursts::8         3327                       # Per bank write bursts (Count)
system.dcache_ctrl.far_memory.perBankWrBursts::9         3440                       # Per bank write bursts (Count)
system.dcache_ctrl.far_memory.perBankWrBursts::10         3466                       # Per bank write bursts (Count)
system.dcache_ctrl.far_memory.perBankWrBursts::11         3425                       # Per bank write bursts (Count)
system.dcache_ctrl.far_memory.perBankWrBursts::12         3519                       # Per bank write bursts (Count)
system.dcache_ctrl.far_memory.perBankWrBursts::13         3437                       # Per bank write bursts (Count)
system.dcache_ctrl.far_memory.perBankWrBursts::14         3367                       # Per bank write bursts (Count)
system.dcache_ctrl.far_memory.perBankWrBursts::15         3455                       # Per bank write bursts (Count)
system.dcache_ctrl.far_memory.perBankWrBursts::16         3501                       # Per bank write bursts (Count)
system.dcache_ctrl.far_memory.perBankWrBursts::17         3420                       # Per bank write bursts (Count)
system.dcache_ctrl.far_memory.perBankWrBursts::18         3395                       # Per bank write bursts (Count)
system.dcache_ctrl.far_memory.perBankWrBursts::19         3423                       # Per bank write bursts (Count)
system.dcache_ctrl.far_memory.perBankWrBursts::20         3452                       # Per bank write bursts (Count)
system.dcache_ctrl.far_memory.perBankWrBursts::21         3371                       # Per bank write bursts (Count)
system.dcache_ctrl.far_memory.perBankWrBursts::22         3418                       # Per bank write bursts (Count)
system.dcache_ctrl.far_memory.perBankWrBursts::23         3458                       # Per bank write bursts (Count)
system.dcache_ctrl.far_memory.perBankWrBursts::24         3449                       # Per bank write bursts (Count)
system.dcache_ctrl.far_memory.perBankWrBursts::25         3394                       # Per bank write bursts (Count)
system.dcache_ctrl.far_memory.perBankWrBursts::26         3395                       # Per bank write bursts (Count)
system.dcache_ctrl.far_memory.perBankWrBursts::27         3373                       # Per bank write bursts (Count)
system.dcache_ctrl.far_memory.perBankWrBursts::28         3388                       # Per bank write bursts (Count)
system.dcache_ctrl.far_memory.perBankWrBursts::29         3392                       # Per bank write bursts (Count)
system.dcache_ctrl.far_memory.perBankWrBursts::30         3419                       # Per bank write bursts (Count)
system.dcache_ctrl.far_memory.perBankWrBursts::31         3282                       # Per bank write bursts (Count)
system.dcache_ctrl.far_memory.totQLat     27269495328                       # Total ticks spent queuing (Tick)
system.dcache_ctrl.far_memory.totBusLat     364890652                       # Total ticks spent in databus transfers (Tick)
system.dcache_ctrl.far_memory.totMemAccLat  29185061740                       # Total ticks spent from burst creation until serviced by the DRAM (Tick)
system.dcache_ctrl.far_memory.avgQLat       249011.47                       # Average queueing delay per DRAM burst ((Tick/Count))
system.dcache_ctrl.far_memory.avgBusLat       3332.00                       # Average bus latency per DRAM burst ((Tick/Count))
system.dcache_ctrl.far_memory.avgMemAccLat    266503.47                       # Average memory access latency per DRAM burst ((Tick/Count))
system.dcache_ctrl.far_memory.readRowHits           43                       # Number of row buffer hits during reads (Count)
system.dcache_ctrl.far_memory.writeRowHits          151                       # Number of row buffer hits during writes (Count)
system.dcache_ctrl.far_memory.readRowHitRate         0.04                       # Row buffer hit rate for reads (Ratio)
system.dcache_ctrl.far_memory.writeRowHitRate         0.14                       # Row buffer hit rate for writes (Ratio)
system.dcache_ctrl.far_memory.bytesPerActivate::samples       218823                       # Bytes accessed per row activation (Byte)
system.dcache_ctrl.far_memory.bytesPerActivate::mean    64.056740                       # Bytes accessed per row activation (Byte)
system.dcache_ctrl.far_memory.bytesPerActivate::gmean    64.039341                       # Bytes accessed per row activation (Byte)
system.dcache_ctrl.far_memory.bytesPerActivate::stdev     1.904771                       # Bytes accessed per row activation (Byte)
system.dcache_ctrl.far_memory.bytesPerActivate::64-79       218629     99.91%     99.91% # Bytes accessed per row activation (Byte)
system.dcache_ctrl.far_memory.bytesPerActivate::128-143          194      0.09%    100.00% # Bytes accessed per row activation (Byte)
system.dcache_ctrl.far_memory.bytesPerActivate::total       218823                       # Bytes accessed per row activation (Byte)
system.dcache_ctrl.far_memory.bytesRead       7008704                       # Total bytes read (Byte)
system.dcache_ctrl.far_memory.bytesWritten      7008768                       # Total bytes written (Byte)
system.dcache_ctrl.far_memory.avgRdBW     7008.704000                       # Average DRAM read bandwidth in MiBytes/s ((Byte/Second))
system.dcache_ctrl.far_memory.avgWrBW     7008.768000                       # Average DRAM write bandwidth in MiBytes/s ((Byte/Second))
system.dcache_ctrl.far_memory.peakBW         19207.00                       # Theoretical peak bandwidth in MiByte/s ((Byte/Second))
system.dcache_ctrl.far_memory.busUtil           72.98                       # Data bus utilization in percentage (Ratio)
system.dcache_ctrl.far_memory.busUtilRead        36.49                       # Data bus utilization in percentage for reads (Ratio)
system.dcache_ctrl.far_memory.busUtilWrite        36.49                       # Data bus utilization in percentage for writes (Ratio)
system.dcache_ctrl.far_memory.pageHitRate         0.09                       # Row buffer hit rate, read and write combined (Ratio)
system.dcache_ctrl.far_memory.power_state.pwrStateResidencyTicks::UNDEFINED   1000000000                       # Cumulative time (in ticks) in various power states (Tick)
system.dcache_ctrl.far_memory.rank0.actEnergy 342675994.752000                       # Energy for activate commands per rank (pJ) (Joule)
system.dcache_ctrl.far_memory.rank0.preEnergy 455566756.377600                       # Energy for precharge commands per rank (pJ) (Joule)
system.dcache_ctrl.far_memory.rank0.readEnergy 231292741.881600                       # Energy for read commands per rank (pJ) (Joule)
system.dcache_ctrl.far_memory.rank0.writeEnergy 206649627.072000                       # Energy for write commands per rank (pJ) (Joule)
system.dcache_ctrl.far_memory.rank0.refreshEnergy 177328336.281601                       # Energy for refresh commands per rank (pJ) (Joule)
system.dcache_ctrl.far_memory.rank0.actBackEnergy 828328727.923200                       # Energy for active background per rank (pJ) (Joule)
system.dcache_ctrl.far_memory.rank0.preBackEnergy 16344467.596800                       # Energy for precharge background per rank (pJ) (Joule)
system.dcache_ctrl.far_memory.rank0.actPowerDownEnergy            0                       # Energy for active power-down per rank (pJ) (Joule)
system.dcache_ctrl.far_memory.rank0.prePowerDownEnergy            0                       # Energy for precharge power-down per rank (pJ) (Joule)
system.dcache_ctrl.far_memory.rank0.selfRefreshEnergy            0                       # Energy for self refresh per rank (pJ) (Joule)
system.dcache_ctrl.far_memory.rank0.totalEnergy 2258186651.884799                       # Total energy per rank (pJ) (Joule)
system.dcache_ctrl.far_memory.rank0.averagePower  2258.186652                       # Core power per rank (mW) (Watt)
system.dcache_ctrl.far_memory.rank0.totalIdleTime            0                       # Total Idle time Per DRAM Rank (Tick)
system.dcache_ctrl.far_memory.rank0.pwrStateTime::IDLE     20447030                       # Time in different power states (Tick)
system.dcache_ctrl.far_memory.rank0.pwrStateTime::REF     44800000                       # Time in different power states (Tick)
system.dcache_ctrl.far_memory.rank0.pwrStateTime::SREF            0                       # Time in different power states (Tick)
system.dcache_ctrl.far_memory.rank0.pwrStateTime::PRE_PDN            0                       # Time in different power states (Tick)
system.dcache_ctrl.far_memory.rank0.pwrStateTime::ACT    934752970                       # Time in different power states (Tick)
system.dcache_ctrl.far_memory.rank0.pwrStateTime::ACT_PDN            0                       # Time in different power states (Tick)
system.dcache_ctrl.far_memory.rank1.actEnergy 339784911.648000                       # Energy for activate commands per rank (pJ) (Joule)
system.dcache_ctrl.far_memory.rank1.preEnergy 451698220.411200                       # Energy for precharge commands per rank (pJ) (Joule)
system.dcache_ctrl.far_memory.rank1.readEnergy 229345217.203200                       # Energy for read commands per rank (pJ) (Joule)
system.dcache_ctrl.far_memory.rank1.writeEnergy 204916960.416000                       # Energy for write commands per rank (pJ) (Joule)
system.dcache_ctrl.far_memory.rank1.refreshEnergy 177328336.281601                       # Energy for refresh commands per rank (pJ) (Joule)
system.dcache_ctrl.far_memory.rank1.actBackEnergy 829276360.718400                       # Energy for active background per rank (pJ) (Joule)
system.dcache_ctrl.far_memory.rank1.preBackEnergy 15616342.963200                       # Energy for precharge background per rank (pJ) (Joule)
system.dcache_ctrl.far_memory.rank1.actPowerDownEnergy            0                       # Energy for active power-down per rank (pJ) (Joule)
system.dcache_ctrl.far_memory.rank1.prePowerDownEnergy            0                       # Energy for precharge power-down per rank (pJ) (Joule)
system.dcache_ctrl.far_memory.rank1.selfRefreshEnergy            0                       # Energy for self refresh per rank (pJ) (Joule)
system.dcache_ctrl.far_memory.rank1.totalEnergy 2247966349.641599                       # Total energy per rank (pJ) (Joule)
system.dcache_ctrl.far_memory.rank1.averagePower  2247.966350                       # Core power per rank (mW) (Watt)
system.dcache_ctrl.far_memory.rank1.totalIdleTime            0                       # Total Idle time Per DRAM Rank (Tick)
system.dcache_ctrl.far_memory.rank1.pwrStateTime::IDLE     19587710                       # Time in different power states (Tick)
system.dcache_ctrl.far_memory.rank1.pwrStateTime::REF     44800000                       # Time in different power states (Tick)
system.dcache_ctrl.far_memory.rank1.pwrStateTime::SREF            0                       # Time in different power states (Tick)
system.dcache_ctrl.far_memory.rank1.pwrStateTime::PRE_PDN            0                       # Time in different power states (Tick)
system.dcache_ctrl.far_memory.rank1.pwrStateTime::ACT    935612290                       # Time in different power states (Tick)
system.dcache_ctrl.far_memory.rank1.pwrStateTime::ACT_PDN            0                       # Time in different power states (Tick)
system.dcache_ctrl.power_state.pwrStateResidencyTicks::UNDEFINED   1000000000                       # Cumulative time (in ticks) in various power states (Tick)
system.farMem_ctrl.avgPriority_writebacks::samples    109640.00                       # Average QoS priority value for accepted requests (Count)
system.farMem_ctrl.avgPriority_generator::samples    109526.00                       # Average QoS priority value for accepted requests (Count)
system.farMem_ctrl.priorityMinLatency    0.000000031652                       # per QoS priority minimum request to response latency (Second)
system.farMem_ctrl.priorityMaxLatency    0.000012803826                       # per QoS priority maximum request to response latency (Second)
system.farMem_ctrl.numReadWriteTurnArounds         5886                       # Number of turnarounds from READ to WRITE (Count)
system.farMem_ctrl.numWriteReadTurnArounds         5887                       # Number of turnarounds from WRITE to READ (Count)
system.farMem_ctrl.numStayReadState            108990                       # Number of times bus staying in READ state (Count)
system.farMem_ctrl.numStayWriteState           106780                       # Number of times bus staying in WRITE state (Count)
system.farMem_ctrl.readReqs                    109669                       # Number of read requests accepted (Count)
system.farMem_ctrl.writeReqs                   109640                       # Number of write requests accepted (Count)
system.farMem_ctrl.readBursts                  109669                       # Number of controller read bursts, including those serviced by the write queue (Count)
system.farMem_ctrl.writeBursts                 109640                       # Number of controller write bursts, including those merged in the write queue (Count)
system.farMem_ctrl.servicedByWrQ                  143                       # Number of controller read bursts serviced by the write queue (Count)
system.farMem_ctrl.mergedWrBursts                   0                       # Number of controller write bursts merged with an existing one (Count)
system.farMem_ctrl.neitherReadNorWriteReqs            0                       # Number of requests that are neither read nor write (Count)
system.farMem_ctrl.avgRdQLen                    46.76                       # Average read queue length when enqueuing ((Count/Tick))
system.farMem_ctrl.avgWrQLen                   122.66                       # Average write queue length when enqueuing ((Count/Tick))
system.farMem_ctrl.numRdRetry                   19633                       # Number of times read queue was full causing retry (Count)
system.farMem_ctrl.numWrRetry                   39876                       # Number of times write queue was full causing retry (Count)
system.farMem_ctrl.readPktSize::0                   0                       # Read request sizes (log2) (Count)
system.farMem_ctrl.readPktSize::1                   0                       # Read request sizes (log2) (Count)
system.farMem_ctrl.readPktSize::2                   0                       # Read request sizes (log2) (Count)
system.farMem_ctrl.readPktSize::3                   0                       # Read request sizes (log2) (Count)
system.farMem_ctrl.readPktSize::4                   0                       # Read request sizes (log2) (Count)
system.farMem_ctrl.readPktSize::5                   0                       # Read request sizes (log2) (Count)
[...]
system.farMem_ctrl.rdPerTurnAround::36-39           22      0.37%     94.38% # Reads before turning the bus around for writes (Count)
system.farMem_ctrl.rdPerTurnAround::40-43           21      0.36%     94.73% # Reads before turning the bus around for writes (Count)
system.farMem_ctrl.rdPerTurnAround::44-47           41      0.70%     95.43% # Reads before turning the bus around for writes (Count)
system.farMem_ctrl.rdPerTurnAround::48-51           20      0.34%     95.77% # Reads before turning the bus around for writes (Count)
system.farMem_ctrl.rdPerTurnAround::52-55           67      1.14%     96.91% # Reads before turning the bus around for writes (Count)
system.farMem_ctrl.rdPerTurnAround::56-59           74      1.26%     98.17% # Reads before turning the bus around for writes (Count)
system.farMem_ctrl.rdPerTurnAround::60-63            5      0.08%     98.25% # Reads before turning the bus around for writes (Count)
system.farMem_ctrl.rdPerTurnAround::64-67            5      0.08%     98.34% # Reads before turning the bus around for writes (Count)
system.farMem_ctrl.rdPerTurnAround::68-71            2      0.03%     98.37% # Reads before turning the bus around for writes (Count)
system.farMem_ctrl.rdPerTurnAround::72-75            2      0.03%     98.40% # Reads before turning the bus around for writes (Count)
system.farMem_ctrl.rdPerTurnAround::76-79            7      0.12%     98.52% # Reads before turning the bus around for writes (Count)
system.farMem_ctrl.rdPerTurnAround::80-83            4      0.07%     98.59% # Reads before turning the bus around for writes (Count)
system.farMem_ctrl.rdPerTurnAround::84-87            9      0.15%     98.74% # Reads before turning the bus around for writes (Count)
system.farMem_ctrl.rdPerTurnAround::88-91            5      0.08%     98.83% # Reads before turning the bus around for writes (Count)
system.farMem_ctrl.rdPerTurnAround::92-95            6      0.10%     98.93% # Reads before turning the bus around for writes (Count)
system.farMem_ctrl.rdPerTurnAround::96-99            8      0.14%     99.07% # Reads before turning the bus around for writes (Count)
system.farMem_ctrl.rdPerTurnAround::100-103            4      0.07%     99.13% # Reads before turning the bus around for writes (Count)
system.farMem_ctrl.rdPerTurnAround::104-107            4      0.07%     99.20% # Reads before turning the bus around for writes (Count)
system.farMem_ctrl.rdPerTurnAround::108-111            7      0.12%     99.32% # Reads before turning the bus around for writes (Count)
system.farMem_ctrl.rdPerTurnAround::112-115            6      0.10%     99.42% # Reads before turning the bus around for writes (Count)
system.farMem_ctrl.rdPerTurnAround::116-119            5      0.08%     99.51% # Reads before turning the bus around for writes (Count)
system.farMem_ctrl.rdPerTurnAround::120-123            4      0.07%     99.58% # Reads before turning the bus around for writes (Count)
system.farMem_ctrl.rdPerTurnAround::124-127            5      0.08%     99.66% # Reads before turning the bus around for writes (Count)
system.farMem_ctrl.rdPerTurnAround::128-131            2      0.03%     99.69% # Reads before turning the bus around for writes (Count)
system.farMem_ctrl.rdPerTurnAround::132-135            3      0.05%     99.75% # Reads before turning the bus around for writes (Count)
system.farMem_ctrl.rdPerTurnAround::136-139            1      0.02%     99.76% # Reads before turning the bus around for writes (Count)
system.farMem_ctrl.rdPerTurnAround::140-143            2      0.03%     99.80% # Reads before turning the bus around for writes (Count)
system.farMem_ctrl.rdPerTurnAround::144-147            4      0.07%     99.86% # Reads before turning the bus around for writes (Count)
system.farMem_ctrl.rdPerTurnAround::152-155            2      0.03%     99.90% # Reads before turning the bus around for writes (Count)
system.farMem_ctrl.rdPerTurnAround::156-159            4      0.07%     99.97% # Reads before turning the bus around for writes (Count)
system.farMem_ctrl.rdPerTurnAround::164-167            1      0.02%     99.98% # Reads before turning the bus around for writes (Count)
system.farMem_ctrl.rdPerTurnAround::168-171            1      0.02%    100.00% # Reads before turning the bus around for writes (Count)
system.farMem_ctrl.rdPerTurnAround::total         5887                       # Reads before turning the bus around for writes (Count)
system.farMem_ctrl.wrPerTurnAround::samples         5886                       # Writes before turning the bus around for reads (Count)
system.farMem_ctrl.wrPerTurnAround::mean    18.603296                       # Writes before turning the bus around for reads (Count)
system.farMem_ctrl.wrPerTurnAround::gmean    17.347051                       # Writes before turning the bus around for reads (Count)
system.farMem_ctrl.wrPerTurnAround::stdev    10.815929                       # Writes before turning the bus around for reads (Count)
system.farMem_ctrl.wrPerTurnAround::16-17         5434     92.32%     92.32% # Writes before turning the bus around for reads (Count)
system.farMem_ctrl.wrPerTurnAround::18-19           17      0.29%     92.61% # Writes before turning the bus around for reads (Count)
system.farMem_ctrl.wrPerTurnAround::20-21           15      0.25%     92.86% # Writes before turning the bus around for reads (Count)
system.farMem_ctrl.wrPerTurnAround::22-23           11      0.19%     93.05% # Writes before turning the bus around for reads (Count)
system.farMem_ctrl.wrPerTurnAround::24-25            7      0.12%     93.17% # Writes before turning the bus around for reads (Count)
system.farMem_ctrl.wrPerTurnAround::26-27           10      0.17%     93.34% # Writes before turning the bus around for reads (Count)
system.farMem_ctrl.wrPerTurnAround::28-29           12      0.20%     93.54% # Writes before turning the bus around for reads (Count)
system.farMem_ctrl.wrPerTurnAround::30-31           20      0.34%     93.88% # Writes before turning the bus around for reads (Count)
system.farMem_ctrl.wrPerTurnAround::32-33           18      0.31%     94.19% # Writes before turning the bus around for reads (Count)
system.farMem_ctrl.wrPerTurnAround::34-35           10      0.17%     94.36% # Writes before turning the bus around for reads (Count)
system.farMem_ctrl.wrPerTurnAround::36-37           13      0.22%     94.58% # Writes before turning the bus around for reads (Count)
system.farMem_ctrl.wrPerTurnAround::38-39            5      0.08%     94.67% # Writes before turning the bus around for reads (Count)
system.farMem_ctrl.wrPerTurnAround::40-41           12      0.20%     94.87% # Writes before turning the bus around for reads (Count)
system.farMem_ctrl.wrPerTurnAround::42-43           10      0.17%     95.04% # Writes before turning the bus around for reads (Count)
system.farMem_ctrl.wrPerTurnAround::44-45            9      0.15%     95.19% # Writes before turning the bus around for reads (Count)
system.farMem_ctrl.wrPerTurnAround::46-47           16      0.27%     95.46% # Writes before turning the bus around for reads (Count)
system.farMem_ctrl.wrPerTurnAround::48-49           22      0.37%     95.84% # Writes before turning the bus around for reads (Count)
system.farMem_ctrl.wrPerTurnAround::50-51           28      0.48%     96.31% # Writes before turning the bus around for reads (Count)
system.farMem_ctrl.wrPerTurnAround::52-53           33      0.56%     96.87% # Writes before turning the bus around for reads (Count)
system.farMem_ctrl.wrPerTurnAround::54-55           37      0.63%     97.50% # Writes before turning the bus around for reads (Count)
system.farMem_ctrl.wrPerTurnAround::56-57           29      0.49%     98.00% # Writes before turning the bus around for reads (Count)
system.farMem_ctrl.wrPerTurnAround::58-59           24      0.41%     98.40% # Writes before turning the bus around for reads (Count)
system.farMem_ctrl.wrPerTurnAround::60-61           15      0.25%     98.66% # Writes before turning the bus around for reads (Count)
system.farMem_ctrl.wrPerTurnAround::62-63            9      0.15%     98.81% # Writes before turning the bus around for reads (Count)
system.farMem_ctrl.wrPerTurnAround::64-65            9      0.15%     98.96% # Writes before turning the bus around for reads (Count)
system.farMem_ctrl.wrPerTurnAround::66-67            8      0.14%     99.10% # Writes before turning the bus around for reads (Count)
system.farMem_ctrl.wrPerTurnAround::68-69            6      0.10%     99.20% # Writes before turning the bus around for reads (Count)
system.farMem_ctrl.wrPerTurnAround::70-71            4      0.07%     99.27% # Writes before turning the bus around for reads (Count)
system.farMem_ctrl.wrPerTurnAround::72-73            3      0.05%     99.32% # Writes before turning the bus around for reads (Count)
system.farMem_ctrl.wrPerTurnAround::74-75            2      0.03%     99.35% # Writes before turning the bus around for reads (Count)
system.farMem_ctrl.wrPerTurnAround::76-77            5      0.08%     99.44% # Writes before turning the bus around for reads (Count)
system.farMem_ctrl.wrPerTurnAround::78-79            2      0.03%     99.47% # Writes before turning the bus around for reads (Count)
system.farMem_ctrl.wrPerTurnAround::80-81            6      0.10%     99.58% # Writes before turning the bus around for reads (Count)
system.farMem_ctrl.wrPerTurnAround::82-83            1      0.02%     99.59% # Writes before turning the bus around for reads (Count)
system.farMem_ctrl.wrPerTurnAround::84-85            3      0.05%     99.64% # Writes before turning the bus around for reads (Count)
system.farMem_ctrl.wrPerTurnAround::86-87            2      0.03%     99.68% # Writes before turning the bus around for reads (Count)
system.farMem_ctrl.wrPerTurnAround::90-91            3      0.05%     99.73% # Writes before turning the bus around for reads (Count)
system.farMem_ctrl.wrPerTurnAround::94-95            2      0.03%     99.76% # Writes before turning the bus around for reads (Count)
system.farMem_ctrl.wrPerTurnAround::96-97            1      0.02%     99.78% # Writes before turning the bus around for reads (Count)
system.farMem_ctrl.wrPerTurnAround::98-99            2      0.03%     99.81% # Writes before turning the bus around for reads (Count)
system.farMem_ctrl.wrPerTurnAround::100-101            2      0.03%     99.85% # Writes before turning the bus around for reads (Count)
system.farMem_ctrl.wrPerTurnAround::102-103            1      0.02%     99.86% # Writes before turning the bus around for reads (Count)
system.farMem_ctrl.wrPerTurnAround::116-117            2      0.03%     99.90% # Writes before turning the bus around for reads (Count)
system.farMem_ctrl.wrPerTurnAround::118-119            1      0.02%     99.92% # Writes before turning the bus around for reads (Count)
system.farMem_ctrl.wrPerTurnAround::138-139            1      0.02%     99.93% # Writes before turning the bus around for reads (Count)
system.farMem_ctrl.wrPerTurnAround::146-147            1      0.02%     99.95% # Writes before turning the bus around for reads (Count)
system.farMem_ctrl.wrPerTurnAround::152-153            1      0.02%     99.97% # Writes before turning the bus around for reads (Count)
system.farMem_ctrl.wrPerTurnAround::156-157            1      0.02%     99.98% # Writes before turning the bus around for reads (Count)
system.farMem_ctrl.wrPerTurnAround::202-203            1      0.02%    100.00% # Writes before turning the bus around for reads (Count)
system.farMem_ctrl.wrPerTurnAround::total         5886                       # Writes before turning the bus around for reads (Count)
system.farMem_ctrl.bytesReadWrQ                  9152                       # Total number of bytes read from write queue (Byte)
system.farMem_ctrl.bytesReadSys               7018816                       # Total read bytes from the system interface side (Byte)
system.farMem_ctrl.bytesWrittenSys            7016960                       # Total written bytes from the system interface side (Byte)
system.farMem_ctrl.avgRdBWSys            7018816000.00000000                       # Average system read bandwidth in Byte/s ((Byte/Second))
system.farMem_ctrl.avgWrBWSys            7016960000.00000000                       # Average system write bandwidth in Byte/s ((Byte/Second))
system.farMem_ctrl.totGap                   999953000                       # Total gap between requests (Tick)
system.farMem_ctrl.avgGap                     4559.56                       # Average gap between requests ((Tick/Count))
system.farMem_ctrl.requestorReadBytes::generator      7008704                       # Per-requestor bytes read from memory (Byte)
system.farMem_ctrl.requestorWriteBytes::writebacks      7008768                       # Per-requestor bytes write to memory (Byte)
system.farMem_ctrl.requestorReadRate::generator 7008704000.000000000000                       # Per-requestor bytes read from memory rate ((Byte/Second))
system.farMem_ctrl.requestorWriteRate::writebacks 7008768000.000000000000                       # Per-requestor bytes write to memory rate ((Byte/Second))
system.farMem_ctrl.requestorReadAccesses::generator       109669                       # Per-requestor read serviced memory accesses (Count)
system.farMem_ctrl.requestorWriteAccesses::writebacks       109640                       # Per-requestor write serviced memory accesses (Count)
system.farMem_ctrl.requestorReadTotalLat::generator  29185061740                       # Per-requestor read total memory access latency (Tick)
system.farMem_ctrl.requestorWriteTotalLat::writebacks 116084468008                       # Per-requestor write total memory access latency (Tick)
system.farMem_ctrl.requestorReadAvgLat::generator    266119.52                       # Per-requestor read average memory access latency ((Tick/Count))
system.farMem_ctrl.requestorWriteAvgLat::writebacks   1058778.44                       # Per-requestor write average memory access latency ((Tick/Count))
system.farMem_ctrl.power_state.pwrStateResidencyTicks::UNDEFINED   1000000000                       # Cumulative time (in ticks) in various power states (Tick)
system.generator.numSuppressed                      0                       # Number of suppressed packets to non-memory space (Count)
system.generator.numPackets                    109940                       # Number of packets generated (Count)
system.generator.numRetries                    108184                       # Number of retries (Count)
system.generator.retryTicks                 998088250                       # Time spent waiting due to back-pressure (Tick)
system.generator.bytesRead                    7017024                       # Number of bytes read (Byte)
system.generator.bytesWritten                       0                       # Number of bytes written (Byte)
system.generator.totalReadLatency        289731246750                       # Total latency of read requests (Tick)
system.generator.totalWriteLatency                  0                       # Total latency of write requests (Tick)
system.generator.totalReads                    109641                       # Total num of reads (Count)
system.generator.totalWrites                        0                       # Total num of writes (Count)
system.generator.avgReadLatency          2642544.730074                       # Avg latency of read requests ((Tick/Count))
system.generator.avgWriteLatency                  nan                       # Avg latency of write requests ((Tick/Count))
system.generator.readBW                    7017024000                       # Read bandwidth ((Byte/Second))
system.generator.writeBW                            0                       # Write bandwidth ((Byte/Second))
system.generator.power_state.pwrStateResidencyTicks::UNDEFINED   1000000000                       # Cumulative time (in ticks) in various power states (Tick)
system.membus.transDist::ReadReq               109669                       # Transaction distribution (Count)
system.membus.transDist::ReadResp              109647                       # Transaction distribution (Count)
system.membus.transDist::WriteReq              109640                       # Transaction distribution (Count)
system.membus.transDist::WriteResp             109635                       # Transaction distribution (Count)
system.membus.pktCount_system.dcache_ctrl.req_port::system.farMem_ctrl.port       438591                       # Packet count per connected requestor and responder (Count)
system.membus.pktSize_system.dcache_ctrl.req_port::system.farMem_ctrl.port     14034368                       # Cumulative packet size per connected requestor and responder (Byte)
system.membus.snoops                                0                       # Total snoops (Count)
system.membus.snoopTraffic                          0                       # Total snoop traffic (Byte)
system.membus.snoopFanout::samples             278818                       # Request fanout histogram (Count)
system.membus.snoopFanout::mean                     0                       # Request fanout histogram (Count)
system.membus.snoopFanout::stdev                    0                       # Request fanout histogram (Count)
system.membus.snoopFanout::underflows               0      0.00%      0.00% # Request fanout histogram (Count)
system.membus.snoopFanout::0                   278818    100.00%    100.00% # Request fanout histogram (Count)
system.membus.snoopFanout::overflows                0      0.00%    100.00% # Request fanout histogram (Count)
system.membus.snoopFanout::min_value                0                       # Request fanout histogram (Count)
system.membus.snoopFanout::max_value                0                       # Request fanout histogram (Count)
system.membus.snoopFanout::total               278818                       # Request fanout histogram (Count)
system.membus.power_state.pwrStateResidencyTicks::UNDEFINED   1000000000                       # Cumulative time (in ticks) in various power states (Tick)
system.membus.reqLayer0.occupancy           186661982                       # Layer occupancy (ticks) (Tick)
system.membus.reqLayer0.utilization               0.2                       # Layer utilization (Ratio)
system.membus.respLayer0.occupancy          177689224                       # Layer occupancy (ticks) (Tick)
system.membus.respLayer0.utilization              0.2                       # Layer utilization (Ratio)
system.membus.snoop_filter.totRequests              0                       # Total number of requests made to the snoop filter. (Count)
system.membus.snoop_filter.hitSingleRequests            0                       # Number of requests hitting in the snoop filter with a single holder of the requested data. (Count)
system.membus.snoop_filter.hitMultiRequests            0                       # Number of requests hitting in the snoop filter with multiple (>1) holders of the requested data. (Count)
system.membus.snoop_filter.totSnoops                0                       # Total number of snoops made to the snoop filter. (Count)
system.membus.snoop_filter.hitSingleSnoops            0                       # Number of snoops hitting in the snoop filter with a single holder of the requested data. (Count)
system.membus.snoop_filter.hitMultiSnoops            0                       # Number of snoops hitting in the snoop filter with multiple (>1) holders of the requested data. (Count)
system.workload.inst.arm                            0                       # number of arm instructions executed (Count)
system.workload.inst.quiesce                        0                       # number of quiesce instructions executed (Count)

---------- End Simulation Statistics   ----------
