
---------- Begin Simulation Statistics ----------
simSeconds                                   0.020000                       # Number of seconds simulated (Second)
simTicks                                  20000007886                       # Number of ticks simulated (Tick)
finalTick                                 20000007886                       # Number of ticks from beginning of simulation (restored from checkpoints and never reset) (Tick)
simFreq                                  1000000000000                       # The number of ticks per simulated second ((Tick/Second))
hostSeconds                                    112.94                       # Real time elapsed on the host (Second)
hostTickRate                                177078993                       # The number of ticks simulated per host second (ticks/s) ((Tick/Second))
hostMemory                                    4822244                       # Number of bytes of host memory used (Byte)
system.clk_domain.clock                           250                       # Clock period in ticks (Tick)
system.clk_domain.voltage_domain.voltage            1                       # Voltage in Volts (Volt)
system.far_mem_ctrl.avgPriority_writebacks::samples   5071526.00                       # Average QoS priority value for accepted requests (Count)
system.far_mem_ctrl.priorityMinLatency   0.000000017492                       # per QoS priority minimum request to response latency (Second)
system.far_mem_ctrl.priorityMaxLatency   0.000131174046                       # per QoS priority maximum request to response latency (Second)
system.far_mem_ctrl.numReadWriteTurnArounds            0                       # Number of turnarounds from READ to WRITE (Count)
system.far_mem_ctrl.numWriteReadTurnArounds            0                       # Number of turnarounds from WRITE to READ (Count)
system.far_mem_ctrl.numStayReadState          5213901                       # Number of times bus staying in READ state (Count)
system.far_mem_ctrl.numStayWriteState               0                       # Number of times bus staying in WRITE state (Count)
system.far_mem_ctrl.readReqs                  3029236                       # Number of read requests accepted (Count)
system.far_mem_ctrl.writeReqs                 3029315                       # Number of write requests accepted (Count)
system.far_mem_ctrl.readBursts                3029236                       # Number of controller read bursts, including those serviced by the write queue (Count)
system.far_mem_ctrl.writeBursts               3029315                       # Number of controller write bursts, including those merged in the write queue (Count)
system.far_mem_ctrl.servicedByWrQ               11101                       # Number of controller read bursts serviced by the write queue (Count)
system.far_mem_ctrl.mergedWrBursts             975924                       # Number of controller write bursts merged with an existing one (Count)
system.far_mem_ctrl.avgRdQLen                   55.15                       # Average read queue length when enqueuing ((Count/Tick))
system.far_mem_ctrl.avgWrQLen                  105.69                       # Average write queue length when enqueuing ((Count/Tick))
system.far_mem_ctrl.numRdRetry                4101416                       # Number of times read queue was full causing retry (Count)
system.far_mem_ctrl.numWrRetry                2710919                       # Number of times write queue was full causing retry (Count)
system.far_mem_ctrl.readPktSize::0                  0                       # Read request sizes (log2) (Count)
system.far_mem_ctrl.readPktSize::1                  0                       # Read request sizes (log2) (Count)
system.far_mem_ctrl.readPktSize::2                  0                       # Read request sizes (log2) (Count)
system.far_mem_ctrl.readPktSize::3                  0                       # Read request sizes (log2) (Count)
system.far_mem_ctrl.readPktSize::4                  0                       # Read request sizes (log2) (Count)
system.far_mem_ctrl.readPktSize::5                  0                       # Read request sizes (log2) (Count)
system.far_mem_ctrl.readPktSize::6            3029236                       # Read request sizes (log2) (Count)
system.far_mem_ctrl.writePktSize::0                 0                       # Write request sizes (log2) (Count)
system.far_mem_ctrl.writePktSize::1                 0                       # Write request sizes (log2) (Count)
system.far_mem_ctrl.writePktSize::2                 0                       # Write request sizes (log2) (Count)
system.far_mem_ctrl.writePktSize::3                 0                       # Write request sizes (log2) (Count)
system.far_mem_ctrl.writePktSize::4                 0                       # Write request sizes (log2) (Count)
system.far_mem_ctrl.writePktSize::5                 0                       # Write request sizes (log2) (Count)
system.far_mem_ctrl.writePktSize::6           3029315                       # Write request sizes (log2) (Count)
system.far_mem_ctrl.rdQLenPdf::0                 7719                       # What read queue length does an incoming req see (Count)
system.far_mem_ctrl.rdQLenPdf::1                 8720                       # What read queue length does an incoming req see (Count)
system.far_mem_ctrl.rdQLenPdf::2                 9511                       # What read queue length does an incoming req see (Count)
system.far_mem_ctrl.rdQLenPdf::3                10165                       # What read queue length does an incoming req see (Count)
system.far_mem_ctrl.rdQLenPdf::4                10769                       # What read queue length does an incoming req see (Count)
system.far_mem_ctrl.rdQLenPdf::5                11197                       # What read queue length does an incoming req see (Count)
system.far_mem_ctrl.rdQLenPdf::6                11719                       # What read queue length does an incoming req see (Count)
system.far_mem_ctrl.rdQLenPdf::7                13116                       # What read queue length does an incoming req see (Count)
system.far_mem_ctrl.rdQLenPdf::8                13175                       # What read queue length does an incoming req see (Count)
system.far_mem_ctrl.rdQLenPdf::9                12939                       # What read queue length does an incoming req see (Count)
system.far_mem_ctrl.rdQLenPdf::10               14866                       # What read queue length does an incoming req see (Count)
system.far_mem_ctrl.rdQLenPdf::11               22246                       # What read queue length does an incoming req see (Count)
system.far_mem_ctrl.rdQLenPdf::12               20339                       # What read queue length does an incoming req see (Count)
system.far_mem_ctrl.rdQLenPdf::13               21378                       # What read queue length does an incoming req see (Count)
system.far_mem_ctrl.rdQLenPdf::14               26885                       # What read queue length does an incoming req see (Count)
system.far_mem_ctrl.rdQLenPdf::15               31361                       # What read queue length does an incoming req see (Count)
system.far_mem_ctrl.rdQLenPdf::16               32254                       # What read queue length does an incoming req see (Count)
system.far_mem_ctrl.rdQLenPdf::17               30738                       # What read queue length does an incoming req see (Count)
system.far_mem_ctrl.rdQLenPdf::18               27775                       # What read queue length does an incoming req see (Count)
system.far_mem_ctrl.rdQLenPdf::19               24177                       # What read queue length does an incoming req see (Count)
system.far_mem_ctrl.rdQLenPdf::20               21187                       # What read queue length does an incoming req see (Count)
system.far_mem_ctrl.rdQLenPdf::21               18917                       # What read queue length does an incoming req see (Count)
system.far_mem_ctrl.rdQLenPdf::22               17273                       # What read queue length does an incoming req see (Count)
system.far_mem_ctrl.rdQLenPdf::23               16440                       # What read queue length does an incoming req see (Count)
system.far_mem_ctrl.rdQLenPdf::24               16134                       # What read queue length does an incoming req see (Count)
system.far_mem_ctrl.rdQLenPdf::25               16202                       # What read queue length does an incoming req see (Count)
system.far_mem_ctrl.rdQLenPdf::26               16086                       # What read queue length does an incoming req see (Count)
system.far_mem_ctrl.rdQLenPdf::27               16046                       # What read queue length does an incoming req see (Count)
system.far_mem_ctrl.rdQLenPdf::28               16191                       # What read queue length does an incoming req see (Count)
system.far_mem_ctrl.rdQLenPdf::29               16419                       # What read queue length does an incoming req see (Count)
system.far_mem_ctrl.rdQLenPdf::30               16568                       # What read queue length does an incoming req see (Count)
system.far_mem_ctrl.rdQLenPdf::31               16645                       # What read queue length does an incoming req see (Count)
system.far_mem_ctrl.rdQLenPdf::32               16704                       # What read queue length does an incoming req see (Count)
system.far_mem_ctrl.rdQLenPdf::33               16758                       # What read queue length does an incoming req see (Count)
system.far_mem_ctrl.rdQLenPdf::34               16651                       # What read queue length does an incoming req see (Count)
system.far_mem_ctrl.rdQLenPdf::35               16874                       # What read queue length does an incoming req see (Count)
system.far_mem_ctrl.rdQLenPdf::36               16766                       # What read queue length does an incoming req see (Count)
system.far_mem_ctrl.rdQLenPdf::37               16672                       # What read queue length does an incoming req see (Count)
system.far_mem_ctrl.rdQLenPdf::38               16690                       # What read queue length does an incoming req see (Count)
system.far_mem_ctrl.rdQLenPdf::39               16626                       # What read queue length does an incoming req see (Count)
system.far_mem_ctrl.rdQLenPdf::40               16708                       # What read queue length does an incoming req see (Count)
system.far_mem_ctrl.rdQLenPdf::41               16444                       # What read queue length does an incoming req see (Count)
system.far_mem_ctrl.rdQLenPdf::42               16482                       # What read queue length does an incoming req see (Count)
system.far_mem_ctrl.rdQLenPdf::43               16535                       # What read queue length does an incoming req see (Count)
system.far_mem_ctrl.rdQLenPdf::44               16461                       # What read queue length does an incoming req see (Count)
system.far_mem_ctrl.rdQLenPdf::45               16483                       # What read queue length does an incoming req see (Count)
system.far_mem_ctrl.rdQLenPdf::46               16542                       # What read queue length does an incoming req see (Count)
system.far_mem_ctrl.rdQLenPdf::47               16495                       # What read queue length does an incoming req see (Count)
system.far_mem_ctrl.rdQLenPdf::48               16602                       # What read queue length does an incoming req see (Count)
system.far_mem_ctrl.rdQLenPdf::49               16498                       # What read queue length does an incoming req see (Count)
system.far_mem_ctrl.rdQLenPdf::50               16587                       # What read queue length does an incoming req see (Count)
system.far_mem_ctrl.rdQLenPdf::51               16476                       # What read queue length does an incoming req see (Count)
system.far_mem_ctrl.rdQLenPdf::52               16415                       # What read queue length does an incoming req see (Count)
system.far_mem_ctrl.rdQLenPdf::53               16384                       # What read queue length does an incoming req see (Count)
system.far_mem_ctrl.rdQLenPdf::54               16248                       # What read queue length does an incoming req see (Count)
system.far_mem_ctrl.rdQLenPdf::55               16227                       # What read queue length does an incoming req see (Count)
system.far_mem_ctrl.rdQLenPdf::56               16378                       # What read queue length does an incoming req see (Count)
system.far_mem_ctrl.rdQLenPdf::57               16322                       # What read queue length does an incoming req see (Count)
system.far_mem_ctrl.rdQLenPdf::58               16340                       # What read queue length does an incoming req see (Count)
system.far_mem_ctrl.rdQLenPdf::59               16447                       # What read queue length does an incoming req see (Count)
system.far_mem_ctrl.rdQLenPdf::60               16544                       # What read queue length does an incoming req see (Count)
system.far_mem_ctrl.rdQLenPdf::61               16556                       # What read queue length does an incoming req see (Count)
system.far_mem_ctrl.rdQLenPdf::62               16442                       # What read queue length does an incoming req see (Count)
system.far_mem_ctrl.rdQLenPdf::63             1940621                       # What read queue length does an incoming req see (Count)
system.far_mem_ctrl.wrQLenPdf::0                    1                       # What write queue length does an incoming req see (Count)
system.far_mem_ctrl.wrQLenPdf::1                    1                       # What write queue length does an incoming req see (Count)
system.far_mem_ctrl.wrQLenPdf::2                    1                       # What write queue length does an incoming req see (Count)
system.far_mem_ctrl.wrQLenPdf::3                    1                       # What write queue length does an incoming req see (Count)
system.far_mem_ctrl.wrQLenPdf::4                    1                       # What write queue length does an incoming req see (Count)
system.far_mem_ctrl.wrQLenPdf::5                    1                       # What write queue length does an incoming req see (Count)
system.far_mem_ctrl.wrQLenPdf::6                    1                       # What write queue length does an incoming req see (Count)
system.far_mem_ctrl.wrQLenPdf::7                    1                       # What write queue length does an incoming req see (Count)
system.far_mem_ctrl.wrQLenPdf::8                    1                       # What write queue length does an incoming req see (Count)
system.far_mem_ctrl.wrQLenPdf::9                    1                       # What write queue length does an incoming req see (Count)
system.far_mem_ctrl.wrQLenPdf::10                   1                       # What write queue length does an incoming req see (Count)
system.far_mem_ctrl.wrQLenPdf::11                   1                       # What write queue length does an incoming req see (Count)
system.far_mem_ctrl.wrQLenPdf::12                   1                       # What write queue length does an incoming req see (Count)
system.far_mem_ctrl.wrQLenPdf::13                   1                       # What write queue length does an incoming req see (Count)
system.far_mem_ctrl.wrQLenPdf::14                   1                       # What write queue length does an incoming req see (Count)
system.far_mem_ctrl.wrQLenPdf::15                   1                       # What write queue length does an incoming req see (Count)
system.far_mem_ctrl.wrQLenPdf::16                   1                       # What write queue length does an incoming req see (Count)
system.far_mem_ctrl.wrQLenPdf::17                   1                       # What write queue length does an incoming req see (Count)
system.far_mem_ctrl.wrQLenPdf::18                   1                       # What write queue length does an incoming req see (Count)
system.far_mem_ctrl.wrQLenPdf::19                   1                       # What write queue length does an incoming req see (Count)
system.far_mem_ctrl.wrQLenPdf::20                   1                       # What write queue length does an incoming req see (Count)
system.far_mem_ctrl.wrQLenPdf::21                   1                       # What write queue length does an incoming req see (Count)
system.far_mem_ctrl.wrQLenPdf::22                   1                       # What write queue length does an incoming req see (Count)
system.far_mem_ctrl.wrQLenPdf::23                   1                       # What write queue length does an incoming req see (Count)
system.far_mem_ctrl.wrQLenPdf::24                   1                       # What write queue length does an incoming req see (Count)
system.far_mem_ctrl.wrQLenPdf::25                   1                       # What write queue length does an incoming req see (Count)
system.far_mem_ctrl.wrQLenPdf::26                   1                       # What write queue length does an incoming req see (Count)
system.far_mem_ctrl.wrQLenPdf::27                   1                       # What write queue length does an incoming req see (Count)
system.far_mem_ctrl.wrQLenPdf::28                   1                       # What write queue length does an incoming req see (Count)
system.far_mem_ctrl.wrQLenPdf::29                   1                       # What write queue length does an incoming req see (Count)
system.far_mem_ctrl.wrQLenPdf::30                   1                       # What write queue length does an incoming req see (Count)
system.far_mem_ctrl.wrQLenPdf::31                   1                       # What write queue length does an incoming req see (Count)
system.far_mem_ctrl.wrQLenPdf::32                   1                       # What write queue length does an incoming req see (Count)
system.far_mem_ctrl.wrQLenPdf::33                   1                       # What write queue length does an incoming req see (Count)
system.far_mem_ctrl.wrQLenPdf::34                   1                       # What write queue length does an incoming req see (Count)
system.far_mem_ctrl.wrQLenPdf::35                   1                       # What write queue length does an incoming req see (Count)
system.far_mem_ctrl.wrQLenPdf::36                   1                       # What write queue length does an incoming req see (Count)
system.far_mem_ctrl.wrQLenPdf::37                   1                       # What write queue length does an incoming req see (Count)
system.far_mem_ctrl.wrQLenPdf::38                   1                       # What write queue length does an incoming req see (Count)
system.far_mem_ctrl.wrQLenPdf::39                   1                       # What write queue length does an incoming req see (Count)
system.far_mem_ctrl.wrQLenPdf::40                   1                       # What write queue length does an incoming req see (Count)
system.far_mem_ctrl.wrQLenPdf::41                   1                       # What write queue length does an incoming req see (Count)
system.far_mem_ctrl.wrQLenPdf::42                   1                       # What write queue length does an incoming req see (Count)
system.far_mem_ctrl.wrQLenPdf::43                   1                       # What write queue length does an incoming req see (Count)
system.far_mem_ctrl.wrQLenPdf::44                   1                       # What write queue length does an incoming req see (Count)
system.far_mem_ctrl.wrQLenPdf::45                   1                       # What write queue length does an incoming req see (Count)
system.far_mem_ctrl.wrQLenPdf::46                   1                       # What write queue length does an incoming req see (Count)
system.far_mem_ctrl.wrQLenPdf::47                8875                       # What write queue length does an incoming req see (Count)
system.far_mem_ctrl.wrQLenPdf::48               10458                       # What write queue length does an incoming req see (Count)
system.far_mem_ctrl.wrQLenPdf::49               11278                       # What write queue length does an incoming req see (Count)
system.far_mem_ctrl.wrQLenPdf::50               11497                       # What write queue length does an incoming req see (Count)
system.far_mem_ctrl.wrQLenPdf::51               11700                       # What write queue length does an incoming req see (Count)
system.far_mem_ctrl.wrQLenPdf::52               11999                       # What write queue length does an incoming req see (Count)
system.far_mem_ctrl.wrQLenPdf::53               12111                       # What write queue length does an incoming req see (Count)
system.far_mem_ctrl.wrQLenPdf::54               12285                       # What write queue length does an incoming req see (Count)
system.far_mem_ctrl.wrQLenPdf::55               12597                       # What write queue length does an incoming req see (Count)
system.far_mem_ctrl.wrQLenPdf::56               12764                       # What write queue length does an incoming req see (Count)
system.far_mem_ctrl.wrQLenPdf::57               12801                       # What write queue length does an incoming req see (Count)
system.far_mem_ctrl.wrQLenPdf::58               12958                       # What write queue length does an incoming req see (Count)
system.far_mem_ctrl.wrQLenPdf::59               13152                       # What write queue length does an incoming req see (Count)
system.far_mem_ctrl.wrQLenPdf::60               13085                       # What write queue length does an incoming req see (Count)
system.far_mem_ctrl.wrQLenPdf::61               13129                       # What write queue length does an incoming req see (Count)
system.far_mem_ctrl.wrQLenPdf::62               13275                       # What write queue length does an incoming req see (Count)
system.far_mem_ctrl.wrQLenPdf::63               13299                       # What write queue length does an incoming req see (Count)
system.far_mem_ctrl.wrQLenPdf::64               13428                       # What write queue length does an incoming req see (Count)
system.far_mem_ctrl.wrQLenPdf::65               13435                       # What write queue length does an incoming req see (Count)
system.far_mem_ctrl.wrQLenPdf::66               13449                       # What write queue length does an incoming req see (Count)
system.far_mem_ctrl.wrQLenPdf::67               13480                       # What write queue length does an incoming req see (Count)
system.far_mem_ctrl.wrQLenPdf::68               13681                       # What write queue length does an incoming req see (Count)
system.far_mem_ctrl.wrQLenPdf::69               13733                       # What write queue length does an incoming req see (Count)
system.far_mem_ctrl.wrQLenPdf::70               13840                       # What write queue length does an incoming req see (Count)
system.far_mem_ctrl.wrQLenPdf::71               13975                       # What write queue length does an incoming req see (Count)
system.far_mem_ctrl.wrQLenPdf::72               13924                       # What write queue length does an incoming req see (Count)
system.far_mem_ctrl.wrQLenPdf::73               14042                       # What write queue length does an incoming req see (Count)
system.far_mem_ctrl.wrQLenPdf::74               13845                       # What write queue length does an incoming req see (Count)
system.far_mem_ctrl.wrQLenPdf::75               13857                       # What write queue length does an incoming req see (Count)
system.far_mem_ctrl.wrQLenPdf::76               13760                       # What write queue length does an incoming req see (Count)
system.far_mem_ctrl.wrQLenPdf::77               13813                       # What write queue length does an incoming req see (Count)
system.far_mem_ctrl.wrQLenPdf::78               13887                       # What write queue length does an incoming req see (Count)
system.far_mem_ctrl.wrQLenPdf::79               14005                       # What write queue length does an incoming req see (Count)
system.far_mem_ctrl.wrQLenPdf::80               14046                       # What write queue length does an incoming req see (Count)
system.far_mem_ctrl.wrQLenPdf::81               13931                       # What write queue length does an incoming req see (Count)
system.far_mem_ctrl.wrQLenPdf::82               13924                       # What write queue length does an incoming req see (Count)
system.far_mem_ctrl.wrQLenPdf::83               13777                       # What write queue length does an incoming req see (Count)
system.far_mem_ctrl.wrQLenPdf::84               13840                       # What write queue length does an incoming req see (Count)
system.far_mem_ctrl.wrQLenPdf::85               13828                       # What write queue length does an incoming req see (Count)
system.far_mem_ctrl.wrQLenPdf::86               13851                       # What write queue length does an incoming req see (Count)
system.far_mem_ctrl.wrQLenPdf::87               13790                       # What write queue length does an incoming req see (Count)
system.far_mem_ctrl.wrQLenPdf::88               13743                       # What write queue length does an incoming req see (Count)
system.far_mem_ctrl.wrQLenPdf::89               13701                       # What write queue length does an incoming req see (Count)
system.far_mem_ctrl.wrQLenPdf::90               13596                       # What write queue length does an incoming req see (Count)
system.far_mem_ctrl.wrQLenPdf::91               13221                       # What write queue length does an incoming req see (Count)
system.far_mem_ctrl.wrQLenPdf::92               13109                       # What write queue length does an incoming req see (Count)
system.far_mem_ctrl.wrQLenPdf::93               13158                       # What write queue length does an incoming req see (Count)
system.far_mem_ctrl.wrQLenPdf::94               13285                       # What write queue length does an incoming req see (Count)
system.far_mem_ctrl.wrQLenPdf::95               13329                       # What write queue length does an incoming req see (Count)
system.far_mem_ctrl.wrQLenPdf::96               13026                       # What write queue length does an incoming req see (Count)
system.far_mem_ctrl.wrQLenPdf::97               13128                       # What write queue length does an incoming req see (Count)
system.far_mem_ctrl.wrQLenPdf::98               12930                       # What write queue length does an incoming req see (Count)
system.far_mem_ctrl.wrQLenPdf::99               12890                       # What write queue length does an incoming req see (Count)
system.far_mem_ctrl.wrQLenPdf::100              12626                       # What write queue length does an incoming req see (Count)
system.far_mem_ctrl.wrQLenPdf::101              12653                       # What write queue length does an incoming req see (Count)
system.far_mem_ctrl.wrQLenPdf::102              12253                       # What write queue length does an incoming req see (Count)
system.far_mem_ctrl.wrQLenPdf::103              12021                       # What write queue length does an incoming req see (Count)
system.far_mem_ctrl.wrQLenPdf::104              12157                       # What write queue length does an incoming req see (Count)
system.far_mem_ctrl.wrQLenPdf::105              11845                       # What write queue length does an incoming req see (Count)
system.far_mem_ctrl.wrQLenPdf::106              12055                       # What write queue length does an incoming req see (Count)
system.far_mem_ctrl.wrQLenPdf::107              11988                       # What write queue length does an incoming req see (Count)
system.far_mem_ctrl.wrQLenPdf::108              11947                       # What write queue length does an incoming req see (Count)
system.far_mem_ctrl.wrQLenPdf::109              11816                       # What write queue length does an incoming req see (Count)
system.far_mem_ctrl.wrQLenPdf::110              11833                       # What write queue length does an incoming req see (Count)
system.far_mem_ctrl.wrQLenPdf::111              11805                       # What write queue length does an incoming req see (Count)
system.far_mem_ctrl.wrQLenPdf::112              11589                       # What write queue length does an incoming req see (Count)
system.far_mem_ctrl.wrQLenPdf::113              11468                       # What write queue length does an incoming req see (Count)
system.far_mem_ctrl.wrQLenPdf::114              11332                       # What write queue length does an incoming req see (Count)
system.far_mem_ctrl.wrQLenPdf::115              11327                       # What write queue length does an incoming req see (Count)
system.far_mem_ctrl.wrQLenPdf::116              11158                       # What write queue length does an incoming req see (Count)
system.far_mem_ctrl.wrQLenPdf::117              11184                       # What write queue length does an incoming req see (Count)
system.far_mem_ctrl.wrQLenPdf::118              11181                       # What write queue length does an incoming req see (Count)
system.far_mem_ctrl.wrQLenPdf::119              10955                       # What write queue length does an incoming req see (Count)
system.far_mem_ctrl.wrQLenPdf::120              11078                       # What write queue length does an incoming req see (Count)
system.far_mem_ctrl.wrQLenPdf::121              11023                       # What write queue length does an incoming req see (Count)
system.far_mem_ctrl.wrQLenPdf::122              10847                       # What write queue length does an incoming req see (Count)
system.far_mem_ctrl.wrQLenPdf::123              11293                       # What write queue length does an incoming req see (Count)
system.far_mem_ctrl.wrQLenPdf::124              12696                       # What write queue length does an incoming req see (Count)
system.far_mem_ctrl.wrQLenPdf::125              14428                       # What write queue length does an incoming req see (Count)
system.far_mem_ctrl.wrQLenPdf::126              22318                       # What write queue length does an incoming req see (Count)
system.far_mem_ctrl.wrQLenPdf::127            1026948                       # What write queue length does an incoming req see (Count)
system.far_mem_ctrl.rdPerTurnAround::samples         8874                       # Reads before turning the bus around for writes (Count)
system.far_mem_ctrl.rdPerTurnAround::0           8874    100.00%    100.00% # Reads before turning the bus around for writes (Count)
system.far_mem_ctrl.rdPerTurnAround::total         8874                       # Reads before turning the bus around for writes (Count)
system.far_mem_ctrl.wrPerTurnAround::samples         8874                       # Writes before turning the bus around for reads (Count)
system.far_mem_ctrl.wrPerTurnAround::0           8874    100.00%    100.00% # Writes before turning the bus around for reads (Count)
system.far_mem_ctrl.wrPerTurnAround::total         8874                       # Writes before turning the bus around for reads (Count)
system.far_mem_ctrl.bytesReadWrQ               710464                       # Total number of bytes read from write queue (Byte)
system.far_mem_ctrl.bytesReadSys            193871104                       # Total read bytes from the system interface side (Byte)
system.far_mem_ctrl.bytesWrittenSys         193876160                       # Total written bytes from the system interface side (Byte)
system.far_mem_ctrl.avgRdBWSys           9693551377.83269119                       # Average system read bandwidth in Byte/s ((Byte/Second))
system.far_mem_ctrl.avgWrBWSys           9693804177.73301315                       # Average system write bandwidth in Byte/s ((Byte/Second))
system.far_mem_ctrl.totGap                19999937624                       # Total gap between requests (Tick)
system.far_mem_ctrl.avgGap                    3301.11                       # Average gap between requests ((Tick/Count))
system.far_mem_ctrl.requestorReadBytes::writebacks    193157440                       # Per-requestor bytes read from memory (Byte)
system.far_mem_ctrl.requestorWriteBytes::writebacks    131408832                       # Per-requestor bytes write to memory (Byte)
system.far_mem_ctrl.requestorReadRate::writebacks 9657868191.902572631836                       # Per-requestor bytes read from memory rate ((Byte/Second))
system.far_mem_ctrl.requestorWriteRate::writebacks 6570439009.275898933411                       # Per-requestor bytes write to memory rate ((Byte/Second))
system.far_mem_ctrl.requestorReadAccesses::writebacks      3029236                       # Per-requestor read serviced memory accesses (Count)
system.far_mem_ctrl.requestorWriteAccesses::writebacks      3029315                       # Per-requestor write serviced memory accesses (Count)
system.far_mem_ctrl.requestorReadTotalLat::writebacks 909957046144                       # Per-requestor read total memory access latency (Tick)
system.far_mem_ctrl.requestorWriteTotalLat::writebacks 2080470003998                       # Per-requestor write total memory access latency (Tick)
system.far_mem_ctrl.requestorReadAvgLat::writebacks    300391.60                       # Per-requestor read average memory access latency ((Tick/Count))
system.far_mem_ctrl.requestorWriteAvgLat::writebacks    686779.03                       # Per-requestor write average memory access latency ((Tick/Count))
system.far_mem_ctrl.dram.bytesRead::writebacks    193867008                       # Number of bytes read from this memory (Byte)
system.far_mem_ctrl.dram.bytesRead::total    193867008                       # Number of bytes read from this memory (Byte)
system.far_mem_ctrl.dram.bytesWritten::writebacks    193876160                       # Number of bytes written to this memory (Byte)
system.far_mem_ctrl.dram.bytesWritten::total    193876160                       # Number of bytes written to this memory (Byte)
system.far_mem_ctrl.dram.numReads::writebacks      3029172                       # Number of read requests responded to by this memory (Count)
system.far_mem_ctrl.dram.numReads::total      3029172                       # Number of read requests responded to by this memory (Count)
system.far_mem_ctrl.dram.numWrites::writebacks      3029315                       # Number of write requests responded to by this memory (Count)
system.far_mem_ctrl.dram.numWrites::total      3029315                       # Number of write requests responded to by this memory (Count)
system.far_mem_ctrl.dram.bwRead::writebacks   9693346578                       # Total read bandwidth from this memory ((Byte/Second))
system.far_mem_ctrl.dram.bwRead::total     9693346578                       # Total read bandwidth from this memory ((Byte/Second))
system.far_mem_ctrl.dram.bwWrite::writebacks   9693804178                       # Write bandwidth from this memory ((Byte/Second))
system.far_mem_ctrl.dram.bwWrite::total    9693804178                       # Write bandwidth from this memory ((Byte/Second))
system.far_mem_ctrl.dram.bwTotal::writebacks  19387150756                       # Total bandwidth to/from this memory ((Byte/Second))
system.far_mem_ctrl.dram.bwTotal::total   19387150756                       # Total bandwidth to/from this memory ((Byte/Second))
system.far_mem_ctrl.dram.readBursts           3018085                       # Number of DRAM read bursts (Count)
system.far_mem_ctrl.dram.writeBursts          2053263                       # Number of DRAM write bursts (Count)
system.far_mem_ctrl.dram.perBankRdBursts::0        94586                       # Per bank write bursts (Count)
system.far_mem_ctrl.dram.perBankRdBursts::1        94207                       # Per bank write bursts (Count)
system.far_mem_ctrl.dram.perBankRdBursts::2        94583                       # Per bank write bursts (Count)
system.far_mem_ctrl.dram.perBankRdBursts::3        94650                       # Per bank write bursts (Count)
system.far_mem_ctrl.dram.perBankRdBursts::4        94624                       # Per bank write bursts (Count)
system.far_mem_ctrl.dram.perBankRdBursts::5        94552                       # Per bank write bursts (Count)
system.far_mem_ctrl.dram.perBankRdBursts::6        94122                       # Per bank write bursts (Count)
system.far_mem_ctrl.dram.perBankRdBursts::7        93957                       # Per bank write bursts (Count)
system.far_mem_ctrl.dram.perBankRdBursts::8        94076                       # Per bank write bursts (Count)
system.far_mem_ctrl.dram.perBankRdBursts::9        93943                       # Per bank write bursts (Count)
system.far_mem_ctrl.dram.perBankRdBursts::10        94061                       # Per bank write bursts (Count)
system.far_mem_ctrl.dram.perBankRdBursts::11        93838                       # Per bank write bursts (Count)
system.far_mem_ctrl.dram.perBankRdBursts::12        94617                       # Per bank write bursts (Count)
system.far_mem_ctrl.dram.perBankRdBursts::13        94290                       # Per bank write bursts (Count)
system.far_mem_ctrl.dram.perBankRdBursts::14        94078                       # Per bank write bursts (Count)
system.far_mem_ctrl.dram.perBankRdBursts::15        94944                       # Per bank write bursts (Count)
system.far_mem_ctrl.dram.perBankRdBursts::16        94251                       # Per bank write bursts (Count)
system.far_mem_ctrl.dram.perBankRdBursts::17        94433                       # Per bank write bursts (Count)
system.far_mem_ctrl.dram.perBankRdBursts::18        94053                       # Per bank write bursts (Count)
system.far_mem_ctrl.dram.perBankRdBursts::19        94191                       # Per bank write bursts (Count)
system.far_mem_ctrl.dram.perBankRdBursts::20        94350                       # Per bank write bursts (Count)
system.far_mem_ctrl.dram.perBankRdBursts::21        94122                       # Per bank write bursts (Count)
system.far_mem_ctrl.dram.perBankRdBursts::22        94790                       # Per bank write bursts (Count)
system.far_mem_ctrl.dram.perBankRdBursts::23        94382                       # Per bank write bursts (Count)
system.far_mem_ctrl.dram.perBankRdBursts::24        94091                       # Per bank write bursts (Count)
system.far_mem_ctrl.dram.perBankRdBursts::25        94326                       # Per bank write bursts (Count)
system.far_mem_ctrl.dram.perBankRdBursts::26        93887                       # Per bank write bursts (Count)
system.far_mem_ctrl.dram.perBankRdBursts::27        94429                       # Per bank write bursts (Count)
system.far_mem_ctrl.dram.perBankRdBursts::28        94667                       # Per bank write bursts (Count)
system.far_mem_ctrl.dram.perBankRdBursts::29        94140                       # Per bank write bursts (Count)
system.far_mem_ctrl.dram.perBankRdBursts::30        94114                       # Per bank write bursts (Count)
system.far_mem_ctrl.dram.perBankRdBursts::31        94731                       # Per bank write bursts (Count)
system.far_mem_ctrl.dram.perBankWrBursts::0        78568                       # Per bank write bursts (Count)
system.far_mem_ctrl.dram.perBankWrBursts::1        63587                       # Per bank write bursts (Count)
system.far_mem_ctrl.dram.perBankWrBursts::2        63994                       # Per bank write bursts (Count)
system.far_mem_ctrl.dram.perBankWrBursts::3        64054                       # Per bank write bursts (Count)
system.far_mem_ctrl.dram.perBankWrBursts::4        64018                       # Per bank write bursts (Count)
system.far_mem_ctrl.dram.perBankWrBursts::5        63854                       # Per bank write bursts (Count)
system.far_mem_ctrl.dram.perBankWrBursts::6        63582                       # Per bank write bursts (Count)
system.far_mem_ctrl.dram.perBankWrBursts::7        63412                       # Per bank write bursts (Count)
system.far_mem_ctrl.dram.perBankWrBursts::8        63412                       # Per bank write bursts (Count)
system.far_mem_ctrl.dram.perBankWrBursts::9        63387                       # Per bank write bursts (Count)
system.far_mem_ctrl.dram.perBankWrBursts::10        63446                       # Per bank write bursts (Count)
system.far_mem_ctrl.dram.perBankWrBursts::11        63184                       # Per bank write bursts (Count)
system.far_mem_ctrl.dram.perBankWrBursts::12        64094                       # Per bank write bursts (Count)
system.far_mem_ctrl.dram.perBankWrBursts::13        63646                       # Per bank write bursts (Count)
system.far_mem_ctrl.dram.perBankWrBursts::14        63520                       # Per bank write bursts (Count)
system.far_mem_ctrl.dram.perBankWrBursts::15        64274                       # Per bank write bursts (Count)
system.far_mem_ctrl.dram.perBankWrBursts::16        63719                       # Per bank write bursts (Count)
system.far_mem_ctrl.dram.perBankWrBursts::17        63864                       # Per bank write bursts (Count)
system.far_mem_ctrl.dram.perBankWrBursts::18        63480                       # Per bank write bursts (Count)
system.far_mem_ctrl.dram.perBankWrBursts::19        63590                       # Per bank write bursts (Count)
system.far_mem_ctrl.dram.perBankWrBursts::20        63743                       # Per bank write bursts (Count)
system.far_mem_ctrl.dram.perBankWrBursts::21        63545                       # Per bank write bursts (Count)
system.far_mem_ctrl.dram.perBankWrBursts::22        64145                       # Per bank write bursts (Count)
system.far_mem_ctrl.dram.perBankWrBursts::23        63724                       # Per bank write bursts (Count)
system.far_mem_ctrl.dram.perBankWrBursts::24        63536                       # Per bank write bursts (Count)
system.far_mem_ctrl.dram.perBankWrBursts::25        63646                       # Per bank write bursts (Count)
system.far_mem_ctrl.dram.perBankWrBursts::26        63270                       # Per bank write bursts (Count)
system.far_mem_ctrl.dram.perBankWrBursts::27        63781                       # Per bank write bursts (Count)
system.far_mem_ctrl.dram.perBankWrBursts::28        64041                       # Per bank write bursts (Count)
system.far_mem_ctrl.dram.perBankWrBursts::29        63552                       # Per bank write bursts (Count)
system.far_mem_ctrl.dram.perBankWrBursts::30        63494                       # Per bank write bursts (Count)
system.far_mem_ctrl.dram.perBankWrBursts::31        64101                       # Per bank write bursts (Count)
system.far_mem_ctrl.dram.totQLat         857164703324                       # Total ticks spent queuing (Tick)
system.far_mem_ctrl.dram.totBusLat        10056259220                       # Total ticks spent in databus transfers (Tick)
system.far_mem_ctrl.dram.totMemAccLat    909957046144                       # Total ticks spent from burst creation until serviced by the DRAM (Tick)
system.far_mem_ctrl.dram.avgQLat            284009.46                       # Average queueing delay per DRAM burst ((Tick/Count))
system.far_mem_ctrl.dram.avgBusLat            3332.00                       # Average bus latency per DRAM burst ((Tick/Count))
system.far_mem_ctrl.dram.avgMemAccLat       301501.46                       # Average memory access latency per DRAM burst ((Tick/Count))
system.far_mem_ctrl.dram.readRowHits              669                       # Number of row buffer hits during reads (Count)
system.far_mem_ctrl.dram.writeRowHits            3416                       # Number of row buffer hits during writes (Count)
system.far_mem_ctrl.dram.readRowHitRate          0.02                       # Row buffer hit rate for reads (Ratio)
system.far_mem_ctrl.dram.writeRowHitRate         0.17                       # Row buffer hit rate for writes (Ratio)
system.far_mem_ctrl.dram.bytesPerActivate::samples      5067248                       # Bytes accessed per row activation (Byte)
system.far_mem_ctrl.dram.bytesPerActivate::mean    64.051594                       # Bytes accessed per row activation (Byte)
system.far_mem_ctrl.dram.bytesPerActivate::gmean    64.025289                       # Bytes accessed per row activation (Byte)
system.far_mem_ctrl.dram.bytesPerActivate::stdev     4.123954                       # Bytes accessed per row activation (Byte)
system.far_mem_ctrl.dram.bytesPerActivate::0-127      5064885     99.95%     99.95% # Bytes accessed per row activation (Byte)
system.far_mem_ctrl.dram.bytesPerActivate::128-255         2115      0.04%    100.00% # Bytes accessed per row activation (Byte)
system.far_mem_ctrl.dram.bytesPerActivate::256-383           73      0.00%    100.00% # Bytes accessed per row activation (Byte)
system.far_mem_ctrl.dram.bytesPerActivate::384-511           48      0.00%    100.00% # Bytes accessed per row activation (Byte)
system.far_mem_ctrl.dram.bytesPerActivate::512-639           35      0.00%    100.00% # Bytes accessed per row activation (Byte)
system.far_mem_ctrl.dram.bytesPerActivate::640-767           30      0.00%    100.00% # Bytes accessed per row activation (Byte)
system.far_mem_ctrl.dram.bytesPerActivate::768-895           17      0.00%    100.00% # Bytes accessed per row activation (Byte)
system.far_mem_ctrl.dram.bytesPerActivate::896-1023           11      0.00%    100.00% # Bytes accessed per row activation (Byte)
system.far_mem_ctrl.dram.bytesPerActivate::1024-1151           34      0.00%    100.00% # Bytes accessed per row activation (Byte)
system.far_mem_ctrl.dram.bytesPerActivate::total      5067248                       # Bytes accessed per row activation (Byte)
system.far_mem_ctrl.dram.bytesRead          193157440                       # Total bytes read (Byte)
system.far_mem_ctrl.dram.bytesWritten       131408832                       # Total bytes written (Byte)
system.far_mem_ctrl.dram.avgRdBW          9657.868192                       # Average DRAM read bandwidth in MiBytes/s ((Byte/Second))
system.far_mem_ctrl.dram.avgWrBW          6570.439009                       # Average DRAM write bandwidth in MiBytes/s ((Byte/Second))
system.far_mem_ctrl.dram.peakBW              19207.00                       # Theoretical peak bandwidth in MiByte/s ((Byte/Second))
system.far_mem_ctrl.dram.busUtil                84.49                       # Data bus utilization in percentage (Ratio)
system.far_mem_ctrl.dram.busUtilRead            50.28                       # Data bus utilization in percentage for reads (Ratio)
system.far_mem_ctrl.dram.busUtilWrite           34.21                       # Data bus utilization in percentage for writes (Ratio)
system.far_mem_ctrl.dram.pageHitRate             0.08                       # Row buffer hit rate, read and write combined (Ratio)
system.far_mem_ctrl.dram.power_state.pwrStateResidencyTicks::UNDEFINED  20000007886                       # Cumulative time (in ticks) in various power states (Tick)
system.far_mem_ctrl.dram.rank0.actEnergy 7921804730.112016                       # Energy for activate commands per rank (pJ) (Joule)
system.far_mem_ctrl.dram.rank0.preEnergy 10531888070.995180                       # Energy for precharge commands per rank (pJ) (Joule)
system.far_mem_ctrl.dram.rank0.readEnergy 6347832602.899190                       # Energy for read commands per rank (pJ) (Joule)
system.far_mem_ctrl.dram.rank0.writeEnergy 3886405135.871994                       # Energy for write commands per rank (pJ) (Joule)
system.far_mem_ctrl.dram.rank0.refreshEnergy 3557649746.649648                       # Energy for refresh commands per rank (pJ) (Joule)
system.far_mem_ctrl.dram.rank0.actBackEnergy 16903562405.385622                       # Energy for active background per rank (pJ) (Joule)
system.far_mem_ctrl.dram.rank0.preBackEnergy 67957574.092801                       # Energy for precharge background per rank (pJ) (Joule)
system.far_mem_ctrl.dram.rank0.actPowerDownEnergy            0                       # Energy for active power-down per rank (pJ) (Joule)
system.far_mem_ctrl.dram.rank0.prePowerDownEnergy            0                       # Energy for precharge power-down per rank (pJ) (Joule)
system.far_mem_ctrl.dram.rank0.selfRefreshEnergy            0                       # Energy for self refresh per rank (pJ) (Joule)
system.far_mem_ctrl.dram.rank0.totalEnergy 49217100266.006378                       # Total energy per rank (pJ) (Joule)
system.far_mem_ctrl.dram.rank0.averagePower  2460.854043                       # Core power per rank (mW) (Watt)
system.far_mem_ctrl.dram.rank0.totalIdleTime            0                       # Total Idle time Per DRAM Rank (Tick)
system.far_mem_ctrl.dram.rank0.pwrStateTime::IDLE     32879135                       # Time in different power states (Tick)
system.far_mem_ctrl.dram.rank0.pwrStateTime::REF    898800000                       # Time in different power states (Tick)
system.far_mem_ctrl.dram.rank0.pwrStateTime::SREF            0                       # Time in different power states (Tick)
system.far_mem_ctrl.dram.rank0.pwrStateTime::PRE_PDN            0                       # Time in different power states (Tick)
system.far_mem_ctrl.dram.rank0.pwrStateTime::ACT  19068328751                       # Time in different power states (Tick)
system.far_mem_ctrl.dram.rank0.pwrStateTime::ACT_PDN            0                       # Time in different power states (Tick)
system.far_mem_ctrl.dram.rank1.actEnergy 7881719410.655997                       # Energy for activate commands per rank (pJ) (Joule)
system.far_mem_ctrl.dram.rank1.preEnergy 10478611738.056023                       # Energy for precharge commands per rank (pJ) (Joule)
system.far_mem_ctrl.dram.rank1.readEnergy 6347151179.577601                       # Energy for read commands per rank (pJ) (Joule)
system.far_mem_ctrl.dram.rank1.writeEnergy 3830775636.575995                       # Energy for write commands per rank (pJ) (Joule)
system.far_mem_ctrl.dram.rank1.refreshEnergy 3557649746.649648                       # Energy for refresh commands per rank (pJ) (Joule)
system.far_mem_ctrl.dram.rank1.actBackEnergy 16903470402.201597                       # Energy for active background per rank (pJ) (Joule)
system.far_mem_ctrl.dram.rank1.preBackEnergy 68028265.804801                       # Energy for precharge background per rank (pJ) (Joule)
system.far_mem_ctrl.dram.rank1.actPowerDownEnergy            0                       # Energy for active power-down per rank (pJ) (Joule)
system.far_mem_ctrl.dram.rank1.prePowerDownEnergy            0                       # Energy for precharge power-down per rank (pJ) (Joule)
system.far_mem_ctrl.dram.rank1.selfRefreshEnergy            0                       # Energy for self refresh per rank (pJ) (Joule)
system.far_mem_ctrl.dram.rank1.totalEnergy 49067406379.521637                       # Total energy per rank (pJ) (Joule)
system.far_mem_ctrl.dram.rank1.averagePower  2453.369352                       # Core power per rank (mW) (Watt)
system.far_mem_ctrl.dram.rank1.totalIdleTime            0                       # Total Idle time Per DRAM Rank (Tick)
system.far_mem_ctrl.dram.rank1.pwrStateTime::IDLE     32964246                       # Time in different power states (Tick)
system.far_mem_ctrl.dram.rank1.pwrStateTime::REF    898800000                       # Time in different power states (Tick)
system.far_mem_ctrl.dram.rank1.pwrStateTime::SREF            0                       # Time in different power states (Tick)
system.far_mem_ctrl.dram.rank1.pwrStateTime::PRE_PDN            0                       # Time in different power states (Tick)
system.far_mem_ctrl.dram.rank1.pwrStateTime::ACT  19068243640                       # Time in different power states (Tick)
system.far_mem_ctrl.dram.rank1.pwrStateTime::ACT_PDN            0                       # Time in different power states (Tick)
system.far_mem_ctrl.power_state.pwrStateResidencyTicks::UNDEFINED  20000007886                       # Cumulative time (in ticks) in various power states (Tick)
system.generator.numSuppressed                      0                       # Number of suppressed packets to non-memory space (Count)
system.generator.numPackets                   3029381                       # Number of packets generated (Count)
system.generator.numRetries                   2370842                       # Number of retries (Count)
system.generator.retryTicks               19332745934                       # Time spent waiting due to back-pressure (Tick)
system.generator.bytesRead                  193866048                       # Number of bytes read (Byte)
system.generator.bytesWritten                       0                       # Number of bytes written (Byte)
system.generator.totalReadLatency        4375429293847                       # Total latency of read requests (Tick)
system.generator.totalWriteLatency                  0                       # Total latency of write requests (Tick)
system.generator.totalReads                   3029157                       # Total num of reads (Count)
system.generator.totalWrites                        0                       # Total num of writes (Count)
system.generator.avgReadLatency          1444437.938954                       # Avg latency of read requests ((Tick/Count))
system.generator.avgWriteLatency                  nan                       # Avg latency of write requests ((Tick/Count))
system.generator.readBW                  9693298577.932371                       # Read bandwidth ((Byte/Second))
system.generator.writeBW                            0                       # Write bandwidth ((Byte/Second))
system.generator.power_state.pwrStateResidencyTicks::UNDEFINED  20000007886                       # Cumulative time (in ticks) in various power states (Tick)
system.loc_mem_ctrl.avgPriority_writebacks::samples  12116998.00                       # Average QoS priority value for accepted requests (Count)
system.loc_mem_ctrl.priorityMinLatency   0.000000019000                       # per QoS priority minimum request to response latency (Second)
system.loc_mem_ctrl.priorityMaxLatency   0.000005019000                       # per QoS priority maximum request to response latency (Second)
system.loc_mem_ctrl.numReadWriteTurnArounds            0                       # Number of turnarounds from READ to WRITE (Count)
system.loc_mem_ctrl.numWriteReadTurnArounds            0                       # Number of turnarounds from WRITE to READ (Count)
system.loc_mem_ctrl.numStayReadState         12430676                       # Number of times bus staying in READ state (Count)
system.loc_mem_ctrl.numStayWriteState               0                       # Number of times bus staying in WRITE state (Count)
system.loc_mem_ctrl.readReqs                  3029372                       # Number of read requests accepted (Count)
system.loc_mem_ctrl.writeReqs                 3029134                       # Number of write requests accepted (Count)
system.loc_mem_ctrl.readBursts                6058744                       # Number of controller read bursts, including those serviced by the write queue (Count)
system.loc_mem_ctrl.writeBursts               6058268                       # Number of controller write bursts, including those merged in the write queue (Count)
system.loc_mem_ctrl.servicedByWrQ                  14                       # Number of controller read bursts serviced by the write queue (Count)
system.loc_mem_ctrl.mergedWrBursts                  0                       # Number of controller write bursts merged with an existing one (Count)
system.loc_mem_ctrl.avgRdQLen                   86.67                       # Average read queue length when enqueuing ((Count/Tick))
system.loc_mem_ctrl.avgWrQLen                   68.99                       # Average write queue length when enqueuing ((Count/Tick))
system.loc_mem_ctrl.numRdRetry                5357817                       # Number of times read queue was full causing retry (Count)
system.loc_mem_ctrl.numWrRetry                4659763                       # Number of times write queue was full causing retry (Count)
system.loc_mem_ctrl.readPktSize::0                  0                       # Read request sizes (log2) (Count)
system.loc_mem_ctrl.readPktSize::1                  0                       # Read request sizes (log2) (Count)
system.loc_mem_ctrl.readPktSize::2                  0                       # Read request sizes (log2) (Count)
system.loc_mem_ctrl.readPktSize::3                  0                       # Read request sizes (log2) (Count)
system.loc_mem_ctrl.readPktSize::4                  0                       # Read request sizes (log2) (Count)
system.loc_mem_ctrl.readPktSize::5            6058744                       # Read request sizes (log2) (Count)
system.loc_mem_ctrl.readPktSize::6                  0                       # Read request sizes (log2) (Count)
system.loc_mem_ctrl.writePktSize::0                 0                       # Write request sizes (log2) (Count)
system.loc_mem_ctrl.writePktSize::1                 0                       # Write request sizes (log2) (Count)
system.loc_mem_ctrl.writePktSize::2                 0                       # Write request sizes (log2) (Count)
system.loc_mem_ctrl.writePktSize::3                 0                       # Write request sizes (log2) (Count)
system.loc_mem_ctrl.writePktSize::4                 0                       # Write request sizes (log2) (Count)
system.loc_mem_ctrl.writePktSize::5           6058268                       # Write request sizes (log2) (Count)
system.loc_mem_ctrl.writePktSize::6                 0                       # Write request sizes (log2) (Count)
system.loc_mem_ctrl.rdQLenPdf::0                12092                       # What read queue length does an incoming req see (Count)
system.loc_mem_ctrl.rdQLenPdf::1                12566                       # What read queue length does an incoming req see (Count)
system.loc_mem_ctrl.rdQLenPdf::2                14092                       # What read queue length does an incoming req see (Count)
system.loc_mem_ctrl.rdQLenPdf::3                15235                       # What read queue length does an incoming req see (Count)
system.loc_mem_ctrl.rdQLenPdf::4                15152                       # What read queue length does an incoming req see (Count)
system.loc_mem_ctrl.rdQLenPdf::5                16329                       # What read queue length does an incoming req see (Count)
system.loc_mem_ctrl.rdQLenPdf::6                15817                       # What read queue length does an incoming req see (Count)
system.loc_mem_ctrl.rdQLenPdf::7                17278                       # What read queue length does an incoming req see (Count)
system.loc_mem_ctrl.rdQLenPdf::8                16992                       # What read queue length does an incoming req see (Count)
system.loc_mem_ctrl.rdQLenPdf::9                18797                       # What read queue length does an incoming req see (Count)
system.loc_mem_ctrl.rdQLenPdf::10               19097                       # What read queue length does an incoming req see (Count)
system.loc_mem_ctrl.rdQLenPdf::11               21463                       # What read queue length does an incoming req see (Count)
system.loc_mem_ctrl.rdQLenPdf::12               22557                       # What read queue length does an incoming req see (Count)
system.loc_mem_ctrl.rdQLenPdf::13               24408                       # What read queue length does an incoming req see (Count)
system.loc_mem_ctrl.rdQLenPdf::14               24755                       # What read queue length does an incoming req see (Count)
system.loc_mem_ctrl.rdQLenPdf::15               24954                       # What read queue length does an incoming req see (Count)
system.loc_mem_ctrl.rdQLenPdf::16               24737                       # What read queue length does an incoming req see (Count)
system.loc_mem_ctrl.rdQLenPdf::17               23603                       # What read queue length does an incoming req see (Count)
system.loc_mem_ctrl.rdQLenPdf::18               22336                       # What read queue length does an incoming req see (Count)
system.loc_mem_ctrl.rdQLenPdf::19               22188                       # What read queue length does an incoming req see (Count)
system.loc_mem_ctrl.rdQLenPdf::20               22297                       # What read queue length does an incoming req see (Count)
system.loc_mem_ctrl.rdQLenPdf::21               22752                       # What read queue length does an incoming req see (Count)
system.loc_mem_ctrl.rdQLenPdf::22               23079                       # What read queue length does an incoming req see (Count)
system.loc_mem_ctrl.rdQLenPdf::23               23332                       # What read queue length does an incoming req see (Count)
system.loc_mem_ctrl.rdQLenPdf::24               23409                       # What read queue length does an incoming req see (Count)
system.loc_mem_ctrl.rdQLenPdf::25               23141                       # What read queue length does an incoming req see (Count)
system.loc_mem_ctrl.rdQLenPdf::26               22651                       # What read queue length does an incoming req see (Count)
system.loc_mem_ctrl.rdQLenPdf::27               21861                       # What read queue length does an incoming req see (Count)
system.loc_mem_ctrl.rdQLenPdf::28               21076                       # What read queue length does an incoming req see (Count)
system.loc_mem_ctrl.rdQLenPdf::29               20122                       # What read queue length does an incoming req see (Count)
system.loc_mem_ctrl.rdQLenPdf::30               19337                       # What read queue length does an incoming req see (Count)
system.loc_mem_ctrl.rdQLenPdf::31               18365                       # What read queue length does an incoming req see (Count)
system.loc_mem_ctrl.rdQLenPdf::32               17742                       # What read queue length does an incoming req see (Count)
system.loc_mem_ctrl.rdQLenPdf::33               16993                       # What read queue length does an incoming req see (Count)
system.loc_mem_ctrl.rdQLenPdf::34               16475                       # What read queue length does an incoming req see (Count)
system.loc_mem_ctrl.rdQLenPdf::35               15965                       # What read queue length does an incoming req see (Count)
system.loc_mem_ctrl.rdQLenPdf::36               15689                       # What read queue length does an incoming req see (Count)
system.loc_mem_ctrl.rdQLenPdf::37               15384                       # What read queue length does an incoming req see (Count)
system.loc_mem_ctrl.rdQLenPdf::38               15136                       # What read queue length does an incoming req see (Count)
system.loc_mem_ctrl.rdQLenPdf::39               14928                       # What read queue length does an incoming req see (Count)
system.loc_mem_ctrl.rdQLenPdf::40               21063                       # What read queue length does an incoming req see (Count)
system.loc_mem_ctrl.rdQLenPdf::41               23778                       # What read queue length does an incoming req see (Count)
system.loc_mem_ctrl.rdQLenPdf::42               23108                       # What read queue length does an incoming req see (Count)
system.loc_mem_ctrl.rdQLenPdf::43               23269                       # What read queue length does an incoming req see (Count)
system.loc_mem_ctrl.rdQLenPdf::44               24429                       # What read queue length does an incoming req see (Count)
system.loc_mem_ctrl.rdQLenPdf::45               24451                       # What read queue length does an incoming req see (Count)
system.loc_mem_ctrl.rdQLenPdf::46               25130                       # What read queue length does an incoming req see (Count)
system.loc_mem_ctrl.rdQLenPdf::47               25495                       # What read queue length does an incoming req see (Count)
system.loc_mem_ctrl.rdQLenPdf::48               25718                       # What read queue length does an incoming req see (Count)
system.loc_mem_ctrl.rdQLenPdf::49               26075                       # What read queue length does an incoming req see (Count)
system.loc_mem_ctrl.rdQLenPdf::50               27012                       # What read queue length does an incoming req see (Count)
system.loc_mem_ctrl.rdQLenPdf::51               27330                       # What read queue length does an incoming req see (Count)
system.loc_mem_ctrl.rdQLenPdf::52               28016                       # What read queue length does an incoming req see (Count)
system.loc_mem_ctrl.rdQLenPdf::53               28604                       # What read queue length does an incoming req see (Count)
system.loc_mem_ctrl.rdQLenPdf::54               29142                       # What read queue length does an incoming req see (Count)
system.loc_mem_ctrl.rdQLenPdf::55               29607                       # What read queue length does an incoming req see (Count)
system.loc_mem_ctrl.rdQLenPdf::56               30725                       # What read queue length does an incoming req see (Count)
system.loc_mem_ctrl.rdQLenPdf::57               31677                       # What read queue length does an incoming req see (Count)
system.loc_mem_ctrl.rdQLenPdf::58               32765                       # What read queue length does an incoming req see (Count)
system.loc_mem_ctrl.rdQLenPdf::59               33859                       # What read queue length does an incoming req see (Count)
system.loc_mem_ctrl.rdQLenPdf::60               35421                       # What read queue length does an incoming req see (Count)
system.loc_mem_ctrl.rdQLenPdf::61               36588                       # What read queue length does an incoming req see (Count)
system.loc_mem_ctrl.rdQLenPdf::62               53374                       # What read queue length does an incoming req see (Count)
system.loc_mem_ctrl.rdQLenPdf::63               59607                       # What read queue length does an incoming req see (Count)
system.loc_mem_ctrl.rdQLenPdf::64               60694                       # What read queue length does an incoming req see (Count)
system.loc_mem_ctrl.rdQLenPdf::65               66045                       # What read queue length does an incoming req see (Count)
system.loc_mem_ctrl.rdQLenPdf::66               63978                       # What read queue length does an incoming req see (Count)
system.loc_mem_ctrl.rdQLenPdf::67               69866                       # What read queue length does an incoming req see (Count)
system.loc_mem_ctrl.rdQLenPdf::68               73921                       # What read queue length does an incoming req see (Count)
system.loc_mem_ctrl.rdQLenPdf::69               78389                       # What read queue length does an incoming req see (Count)
system.loc_mem_ctrl.rdQLenPdf::70               84368                       # What read queue length does an incoming req see (Count)
system.loc_mem_ctrl.rdQLenPdf::71               89078                       # What read queue length does an incoming req see (Count)
system.loc_mem_ctrl.rdQLenPdf::72               94239                       # What read queue length does an incoming req see (Count)
system.loc_mem_ctrl.rdQLenPdf::73               98244                       # What read queue length does an incoming req see (Count)
system.loc_mem_ctrl.rdQLenPdf::74              103243                       # What read queue length does an incoming req see (Count)
system.loc_mem_ctrl.rdQLenPdf::75              106689                       # What read queue length does an incoming req see (Count)
system.loc_mem_ctrl.rdQLenPdf::76              110786                       # What read queue length does an incoming req see (Count)
system.loc_mem_ctrl.rdQLenPdf::77              112971                       # What read queue length does an incoming req see (Count)
system.loc_mem_ctrl.rdQLenPdf::78              115726                       # What read queue length does an incoming req see (Count)
system.loc_mem_ctrl.rdQLenPdf::79              117238                       # What read queue length does an incoming req see (Count)
system.loc_mem_ctrl.rdQLenPdf::80              119194                       # What read queue length does an incoming req see (Count)
system.loc_mem_ctrl.rdQLenPdf::81              120064                       # What read queue length does an incoming req see (Count)
system.loc_mem_ctrl.rdQLenPdf::82              120799                       # What read queue length does an incoming req see (Count)
system.loc_mem_ctrl.rdQLenPdf::83              121082                       # What read queue length does an incoming req see (Count)
system.loc_mem_ctrl.rdQLenPdf::84              121429                       # What read queue length does an incoming req see (Count)
system.loc_mem_ctrl.rdQLenPdf::85              121177                       # What read queue length does an incoming req see (Count)
system.loc_mem_ctrl.rdQLenPdf::86              120104                       # What read queue length does an incoming req see (Count)
system.loc_mem_ctrl.rdQLenPdf::87              119621                       # What read queue length does an incoming req see (Count)
system.loc_mem_ctrl.rdQLenPdf::88              118912                       # What read queue length does an incoming req see (Count)
system.loc_mem_ctrl.rdQLenPdf::89              118040                       # What read queue length does an incoming req see (Count)
system.loc_mem_ctrl.rdQLenPdf::90              117336                       # What read queue length does an incoming req see (Count)
system.loc_mem_ctrl.rdQLenPdf::91              116247                       # What read queue length does an incoming req see (Count)
system.loc_mem_ctrl.rdQLenPdf::92              115246                       # What read queue length does an incoming req see (Count)
system.loc_mem_ctrl.rdQLenPdf::93              114234                       # What read queue length does an incoming req see (Count)
system.loc_mem_ctrl.rdQLenPdf::94              113303                       # What read queue length does an incoming req see (Count)
system.loc_mem_ctrl.rdQLenPdf::95              112951                       # What read queue length does an incoming req see (Count)
system.loc_mem_ctrl.rdQLenPdf::96              112125                       # What read queue length does an incoming req see (Count)
system.loc_mem_ctrl.rdQLenPdf::97              111629                       # What read queue length does an incoming req see (Count)
system.loc_mem_ctrl.rdQLenPdf::98              110894                       # What read queue length does an incoming req see (Count)
system.loc_mem_ctrl.rdQLenPdf::99              109714                       # What read queue length does an incoming req see (Count)
system.loc_mem_ctrl.rdQLenPdf::100             108903                       # What read queue length does an incoming req see (Count)
system.loc_mem_ctrl.rdQLenPdf::101             108028                       # What read queue length does an incoming req see (Count)
system.loc_mem_ctrl.rdQLenPdf::102             105223                       # What read queue length does an incoming req see (Count)
system.loc_mem_ctrl.rdQLenPdf::103              97259                       # What read queue length does an incoming req see (Count)
system.loc_mem_ctrl.rdQLenPdf::104              74068                       # What read queue length does an incoming req see (Count)
system.loc_mem_ctrl.rdQLenPdf::105              41338                       # What read queue length does an incoming req see (Count)
system.loc_mem_ctrl.rdQLenPdf::106              17129                       # What read queue length does an incoming req see (Count)
system.loc_mem_ctrl.rdQLenPdf::107              14848                       # What read queue length does an incoming req see (Count)
system.loc_mem_ctrl.rdQLenPdf::108              13714                       # What read queue length does an incoming req see (Count)
system.loc_mem_ctrl.rdQLenPdf::109              13396                       # What read queue length does an incoming req see (Count)
system.loc_mem_ctrl.rdQLenPdf::110              12678                       # What read queue length does an incoming req see (Count)
system.loc_mem_ctrl.rdQLenPdf::111              12453                       # What read queue length does an incoming req see (Count)
system.loc_mem_ctrl.rdQLenPdf::112              12085                       # What read queue length does an incoming req see (Count)
system.loc_mem_ctrl.rdQLenPdf::113              11960                       # What read queue length does an incoming req see (Count)
system.loc_mem_ctrl.rdQLenPdf::114              11564                       # What read queue length does an incoming req see (Count)
system.loc_mem_ctrl.rdQLenPdf::115              11389                       # What read queue length does an incoming req see (Count)
system.loc_mem_ctrl.rdQLenPdf::116              11044                       # What read queue length does an incoming req see (Count)
system.loc_mem_ctrl.rdQLenPdf::117              11023                       # What read queue length does an incoming req see (Count)
system.loc_mem_ctrl.rdQLenPdf::118              10695                       # What read queue length does an incoming req see (Count)
system.loc_mem_ctrl.rdQLenPdf::119              10521                       # What read queue length does an incoming req see (Count)
system.loc_mem_ctrl.rdQLenPdf::120               9831                       # What read queue length does an incoming req see (Count)
system.loc_mem_ctrl.rdQLenPdf::121               9709                       # What read queue length does an incoming req see (Count)
system.loc_mem_ctrl.rdQLenPdf::122               9416                       # What read queue length does an incoming req see (Count)
system.loc_mem_ctrl.rdQLenPdf::123               9241                       # What read queue length does an incoming req see (Count)
system.loc_mem_ctrl.rdQLenPdf::124               8606                       # What read queue length does an incoming req see (Count)
system.loc_mem_ctrl.rdQLenPdf::125               8371                       # What read queue length does an incoming req see (Count)
system.loc_mem_ctrl.rdQLenPdf::126               7691                       # What read queue length does an incoming req see (Count)
system.loc_mem_ctrl.rdQLenPdf::127               6546                       # What read queue length does an incoming req see (Count)
system.loc_mem_ctrl.wrQLenPdf::0                 6262                       # What write queue length does an incoming req see (Count)
system.loc_mem_ctrl.wrQLenPdf::1                 6918                       # What write queue length does an incoming req see (Count)
system.loc_mem_ctrl.wrQLenPdf::2                 7788                       # What write queue length does an incoming req see (Count)
system.loc_mem_ctrl.wrQLenPdf::3                 8311                       # What write queue length does an incoming req see (Count)
system.loc_mem_ctrl.wrQLenPdf::4                 8983                       # What write queue length does an incoming req see (Count)
system.loc_mem_ctrl.wrQLenPdf::5                 9459                       # What write queue length does an incoming req see (Count)
system.loc_mem_ctrl.wrQLenPdf::6                10249                       # What write queue length does an incoming req see (Count)
system.loc_mem_ctrl.wrQLenPdf::7                10984                       # What write queue length does an incoming req see (Count)
system.loc_mem_ctrl.wrQLenPdf::8                12307                       # What write queue length does an incoming req see (Count)
system.loc_mem_ctrl.wrQLenPdf::9                14048                       # What write queue length does an incoming req see (Count)
system.loc_mem_ctrl.wrQLenPdf::10               16826                       # What write queue length does an incoming req see (Count)
system.loc_mem_ctrl.wrQLenPdf::11               19836                       # What write queue length does an incoming req see (Count)
system.loc_mem_ctrl.wrQLenPdf::12               23247                       # What write queue length does an incoming req see (Count)
system.loc_mem_ctrl.wrQLenPdf::13               26733                       # What write queue length does an incoming req see (Count)
system.loc_mem_ctrl.wrQLenPdf::14               30411                       # What write queue length does an incoming req see (Count)
system.loc_mem_ctrl.wrQLenPdf::15               33682                       # What write queue length does an incoming req see (Count)
system.loc_mem_ctrl.wrQLenPdf::16               36499                       # What write queue length does an incoming req see (Count)
system.loc_mem_ctrl.wrQLenPdf::17               38562                       # What write queue length does an incoming req see (Count)
system.loc_mem_ctrl.wrQLenPdf::18               40025                       # What write queue length does an incoming req see (Count)
system.loc_mem_ctrl.wrQLenPdf::19               40620                       # What write queue length does an incoming req see (Count)
system.loc_mem_ctrl.wrQLenPdf::20               40695                       # What write queue length does an incoming req see (Count)
system.loc_mem_ctrl.wrQLenPdf::21               40505                       # What write queue length does an incoming req see (Count)
system.loc_mem_ctrl.wrQLenPdf::22               39698                       # What write queue length does an incoming req see (Count)
system.loc_mem_ctrl.wrQLenPdf::23               39187                       # What write queue length does an incoming req see (Count)
system.loc_mem_ctrl.wrQLenPdf::24               38343                       # What write queue length does an incoming req see (Count)
system.loc_mem_ctrl.wrQLenPdf::25               37039                       # What write queue length does an incoming req see (Count)
system.loc_mem_ctrl.wrQLenPdf::26               35658                       # What write queue length does an incoming req see (Count)
system.loc_mem_ctrl.wrQLenPdf::27               34338                       # What write queue length does an incoming req see (Count)
system.loc_mem_ctrl.wrQLenPdf::28               33705                       # What write queue length does an incoming req see (Count)
system.loc_mem_ctrl.wrQLenPdf::29               33276                       # What write queue length does an incoming req see (Count)
system.loc_mem_ctrl.wrQLenPdf::30               32714                       # What write queue length does an incoming req see (Count)
[...]
system.loc_mem_ctrl.dram_2.bwTotal::total   9684716181                       # Total bandwidth to/from this memory ((Byte/Second))
system.loc_mem_ctrl.dram_2.readBursts         3026586                       # Number of DRAM read bursts (Count)
system.loc_mem_ctrl.dram_2.writeBursts        3026299                       # Number of DRAM write bursts (Count)
system.loc_mem_ctrl.dram_2.perBankRdBursts::0       188226                       # Per bank write bursts (Count)
system.loc_mem_ctrl.dram_2.perBankRdBursts::1       190270                       # Per bank write bursts (Count)
system.loc_mem_ctrl.dram_2.perBankRdBursts::2       190038                       # Per bank write bursts (Count)
system.loc_mem_ctrl.dram_2.perBankRdBursts::3       188550                       # Per bank write bursts (Count)
system.loc_mem_ctrl.dram_2.perBankRdBursts::4       189254                       # Per bank write bursts (Count)
system.loc_mem_ctrl.dram_2.perBankRdBursts::5       189432                       # Per bank write bursts (Count)
system.loc_mem_ctrl.dram_2.perBankRdBursts::6       188902                       # Per bank write bursts (Count)
system.loc_mem_ctrl.dram_2.perBankRdBursts::7       189034                       # Per bank write bursts (Count)
system.loc_mem_ctrl.dram_2.perBankRdBursts::8       189260                       # Per bank write bursts (Count)
system.loc_mem_ctrl.dram_2.perBankRdBursts::9       188532                       # Per bank write bursts (Count)
system.loc_mem_ctrl.dram_2.perBankRdBursts::10       188546                       # Per bank write bursts (Count)
system.loc_mem_ctrl.dram_2.perBankRdBursts::11       189126                       # Per bank write bursts (Count)
system.loc_mem_ctrl.dram_2.perBankRdBursts::12       189734                       # Per bank write bursts (Count)
system.loc_mem_ctrl.dram_2.perBankRdBursts::13       188574                       # Per bank write bursts (Count)
system.loc_mem_ctrl.dram_2.perBankRdBursts::14       189480                       # Per bank write bursts (Count)
system.loc_mem_ctrl.dram_2.perBankRdBursts::15       189628                       # Per bank write bursts (Count)
system.loc_mem_ctrl.dram_2.perBankWrBursts::0       188204                       # Per bank write bursts (Count)
system.loc_mem_ctrl.dram_2.perBankWrBursts::1       190254                       # Per bank write bursts (Count)
system.loc_mem_ctrl.dram_2.perBankWrBursts::2       190016                       # Per bank write bursts (Count)
system.loc_mem_ctrl.dram_2.perBankWrBursts::3       188536                       # Per bank write bursts (Count)
system.loc_mem_ctrl.dram_2.perBankWrBursts::4       189238                       # Per bank write bursts (Count)
system.loc_mem_ctrl.dram_2.perBankWrBursts::5       189410                       # Per bank write bursts (Count)
system.loc_mem_ctrl.dram_2.perBankWrBursts::6       188880                       # Per bank write bursts (Count)
system.loc_mem_ctrl.dram_2.perBankWrBursts::7       189024                       # Per bank write bursts (Count)
system.loc_mem_ctrl.dram_2.perBankWrBursts::8       189246                       # Per bank write bursts (Count)
system.loc_mem_ctrl.dram_2.perBankWrBursts::9       188522                       # Per bank write bursts (Count)
system.loc_mem_ctrl.dram_2.perBankWrBursts::10       188524                       # Per bank write bursts (Count)
system.loc_mem_ctrl.dram_2.perBankWrBursts::11       189112                       # Per bank write bursts (Count)
system.loc_mem_ctrl.dram_2.perBankWrBursts::12       189710                       # Per bank write bursts (Count)
system.loc_mem_ctrl.dram_2.perBankWrBursts::13       188551                       # Per bank write bursts (Count)
system.loc_mem_ctrl.dram_2.perBankWrBursts::14       189464                       # Per bank write bursts (Count)
system.loc_mem_ctrl.dram_2.perBankWrBursts::15       189608                       # Per bank write bursts (Count)
system.loc_mem_ctrl.dram_2.totQLat       587541572214                       # Total ticks spent queuing (Tick)
system.loc_mem_ctrl.dram_2.totBusLat       6053172000                       # Total ticks spent in databus transfers (Tick)
system.loc_mem_ctrl.dram_2.totMemAccLat  648073292214                       # Total ticks spent from burst creation until serviced by the DRAM (Tick)
system.loc_mem_ctrl.dram_2.avgQLat          194126.84                       # Average queueing delay per DRAM burst ((Tick/Count))
system.loc_mem_ctrl.dram_2.avgBusLat          2000.00                       # Average bus latency per DRAM burst ((Tick/Count))
system.loc_mem_ctrl.dram_2.avgMemAccLat     214126.84                       # Average memory access latency per DRAM burst ((Tick/Count))
system.loc_mem_ctrl.dram_2.readRowHits        1511720                       # Number of row buffer hits during reads (Count)
system.loc_mem_ctrl.dram_2.writeRowHits       1511508                       # Number of row buffer hits during writes (Count)
system.loc_mem_ctrl.dram_2.readRowHitRate        49.95                       # Row buffer hit rate for reads (Ratio)
system.loc_mem_ctrl.dram_2.writeRowHitRate        49.95                       # Row buffer hit rate for writes (Ratio)
system.loc_mem_ctrl.dram_2.bytesPerActivate::samples      3029656                       # Bytes accessed per row activation (Byte)
system.loc_mem_ctrl.dram_2.bytesPerActivate::mean    63.932106                       # Bytes accessed per row activation (Byte)
system.loc_mem_ctrl.dram_2.bytesPerActivate::gmean    63.905202                       # Bytes accessed per row activation (Byte)
system.loc_mem_ctrl.dram_2.bytesPerActivate::stdev     1.507127                       # Bytes accessed per row activation (Byte)
system.loc_mem_ctrl.dram_2.bytesPerActivate::32-47         6530      0.22%      0.22% # Bytes accessed per row activation (Byte)
system.loc_mem_ctrl.dram_2.bytesPerActivate::64-79      3023075     99.78%    100.00% # Bytes accessed per row activation (Byte)
system.loc_mem_ctrl.dram_2.bytesPerActivate::128-143           51      0.00%    100.00% # Bytes accessed per row activation (Byte)
system.loc_mem_ctrl.dram_2.bytesPerActivate::total      3029656                       # Bytes accessed per row activation (Byte)
system.loc_mem_ctrl.dram_2.bytesRead         96850752                       # Total bytes read (Byte)
system.loc_mem_ctrl.dram_2.bytesWritten      96841568                       # Total bytes written (Byte)
system.loc_mem_ctrl.dram_2.avgRdBW        4842.535691                       # Average DRAM read bandwidth in MiBytes/s ((Byte/Second))
system.loc_mem_ctrl.dram_2.avgWrBW        4842.076491                       # Average DRAM write bandwidth in MiBytes/s ((Byte/Second))
system.loc_mem_ctrl.dram_2.peakBW            16000.00                       # Theoretical peak bandwidth in MiByte/s ((Byte/Second))
system.loc_mem_ctrl.dram_2.busUtil              60.53                       # Data bus utilization in percentage (Ratio)
system.loc_mem_ctrl.dram_2.busUtilRead          30.27                       # Data bus utilization in percentage for reads (Ratio)
system.loc_mem_ctrl.dram_2.busUtilWrite         30.26                       # Data bus utilization in percentage for writes (Ratio)
system.loc_mem_ctrl.dram_2.pageHitRate          49.95                       # Row buffer hit rate, read and write combined (Ratio)
system.loc_mem_ctrl.dram_2.power_state.pwrStateResidencyTicks::UNDEFINED  20000007886                       # Cumulative time (in ticks) in various power states (Tick)
system.loc_mem_ctrl.dram_2.rank0.actEnergy            0                       # Energy for activate commands per rank (pJ) (Joule)
system.loc_mem_ctrl.dram_2.rank0.preEnergy            0                       # Energy for precharge commands per rank (pJ) (Joule)
system.loc_mem_ctrl.dram_2.rank0.readEnergy            0                       # Energy for read commands per rank (pJ) (Joule)
system.loc_mem_ctrl.dram_2.rank0.writeEnergy            0                       # Energy for write commands per rank (pJ) (Joule)
system.loc_mem_ctrl.dram_2.rank0.refreshEnergy            0                       # Energy for refresh commands per rank (pJ) (Joule)
system.loc_mem_ctrl.dram_2.rank0.actBackEnergy            0                       # Energy for active background per rank (pJ) (Joule)
system.loc_mem_ctrl.dram_2.rank0.preBackEnergy            0                       # Energy for precharge background per rank (pJ) (Joule)
system.loc_mem_ctrl.dram_2.rank0.actPowerDownEnergy            0                       # Energy for active power-down per rank (pJ) (Joule)
system.loc_mem_ctrl.dram_2.rank0.prePowerDownEnergy            0                       # Energy for precharge power-down per rank (pJ) (Joule)
system.loc_mem_ctrl.dram_2.rank0.selfRefreshEnergy            0                       # Energy for self refresh per rank (pJ) (Joule)
system.loc_mem_ctrl.dram_2.rank0.totalEnergy            0                       # Total energy per rank (pJ) (Joule)
system.loc_mem_ctrl.dram_2.rank0.averagePower            0                       # Core power per rank (mW) (Watt)
system.loc_mem_ctrl.dram_2.rank0.totalIdleTime            0                       # Total Idle time Per DRAM Rank (Tick)
system.loc_mem_ctrl.dram_2.rank0.pwrStateTime::IDLE   2233506151                       # Time in different power states (Tick)
system.loc_mem_ctrl.dram_2.rank0.pwrStateTime::REF   1132120000                       # Time in different power states (Tick)
system.loc_mem_ctrl.dram_2.rank0.pwrStateTime::SREF            0                       # Time in different power states (Tick)
system.loc_mem_ctrl.dram_2.rank0.pwrStateTime::PRE_PDN            0                       # Time in different power states (Tick)
system.loc_mem_ctrl.dram_2.rank0.pwrStateTime::ACT  16634381735                       # Time in different power states (Tick)
system.loc_mem_ctrl.dram_2.rank0.pwrStateTime::ACT_PDN            0                       # Time in different power states (Tick)
system.loc_mem_ctrl.power_state.pwrStateResidencyTicks::UNDEFINED  20000007886                       # Cumulative time (in ticks) in various power states (Tick)
system.mem_ctrl.bytesRead::generator        193866688                       # Number of bytes read from this memory (Byte)
system.mem_ctrl.bytesRead::total            193866688                       # Number of bytes read from this memory (Byte)
system.mem_ctrl.numReads::generator           3029167                       # Number of read requests responded to by this memory (Count)
system.mem_ctrl.numReads::total               3029167                       # Number of read requests responded to by this memory (Count)
system.mem_ctrl.bwRead::generator          9693330578                       # Total read bandwidth from this memory ((Byte/Second))
system.mem_ctrl.bwRead::total              9693330578                       # Total read bandwidth from this memory ((Byte/Second))
system.mem_ctrl.bwTotal::generator         9693330578                       # Total bandwidth to/from this memory ((Byte/Second))
system.mem_ctrl.bwTotal::total             9693330578                       # Total bandwidth to/from this memory ((Byte/Second))
system.mem_ctrl.readReqs                      3029381                       # Number of read requests accepted (Count)
system.mem_ctrl.writeReqs                           0                       # Number of write requests accepted (Count)
system.mem_ctrl.servicedByWrQ                       0                       # Number of controller read bursts serviced by the write queue (Count)
system.mem_ctrl.mergedWrBursts                      0                       # Number of controller write bursts merged with an existing one (Count)
system.mem_ctrl.numRdRetry                    2370842                       # Number of times read queue was full causing retry (Count)
system.mem_ctrl.numWrRetry                          0                       # Number of times write queue was full causing retry (Count)
system.mem_ctrl.readPktSize::0                      0                       # Read request sizes (log2) (Count)
system.mem_ctrl.readPktSize::1                      0                       # Read request sizes (log2) (Count)
system.mem_ctrl.readPktSize::2                      0                       # Read request sizes (log2) (Count)
system.mem_ctrl.readPktSize::3                      0                       # Read request sizes (log2) (Count)
system.mem_ctrl.readPktSize::4                      0                       # Read request sizes (log2) (Count)
system.mem_ctrl.readPktSize::5                      0                       # Read request sizes (log2) (Count)
system.mem_ctrl.readPktSize::6                3029381                       # Read request sizes (log2) (Count)
system.mem_ctrl.writePktSize::0                     0                       # Write request sizes (log2) (Count)
system.mem_ctrl.writePktSize::1                     0                       # Write request sizes (log2) (Count)
system.mem_ctrl.writePktSize::2                     0                       # Write request sizes (log2) (Count)
system.mem_ctrl.writePktSize::3                     0                       # Write request sizes (log2) (Count)
system.mem_ctrl.writePktSize::4                     0                       # Write request sizes (log2) (Count)
system.mem_ctrl.writePktSize::5                     0                       # Write request sizes (log2) (Count)
system.mem_ctrl.writePktSize::6                     0                       # Write request sizes (log2) (Count)
system.mem_ctrl.bytesReadWrQ                        0                       # Total number of bytes read from write queue (Byte)
system.mem_ctrl.bytesReadSys                193880384                       # Total read bytes from the system interface side (Byte)
system.mem_ctrl.bytesWrittenSys                     0                       # Total written bytes from the system interface side (Byte)
system.mem_ctrl.avgRdBWSys               9694015377.64973640                       # Average system read bandwidth in Byte/s ((Byte/Second))
system.mem_ctrl.avgWrBWSys                 0.00000000                       # Average system write bandwidth in Byte/s ((Byte/Second))
system.mem_ctrl.totGap                   18446604289171564544                       # Total gap between requests (Tick)
system.mem_ctrl.avgGap                   6089232186103.88                       # Average gap between requests ((Tick/Count))
system.mem_ctrl.avgORBLen                    251.7527                       # Average ORB length ((Count/Tick))
system.mem_ctrl.avgLocRdQLenStrt               121.68                       # Average local read queue length ((Count/Tick))
system.mem_ctrl.avgLocWrQLenStrt                12.24                       # Average local write queue length ((Count/Tick))
system.mem_ctrl.avgFarRdQLenStrt                29.56                       # Average far read queue length ((Count/Tick))
system.mem_ctrl.avgFarWrQLenStrt                26.46                       # Average far write queue length ((Count/Tick))
system.mem_ctrl.avgLocRdQLenEnq                122.68                       # Average local read queue length when enqueuing ((Count/Tick))
system.mem_ctrl.avgLocWrQLenEnq                 36.02                       # Average local write queue length when enqueuing ((Count/Tick))
system.mem_ctrl.avgFarRdQLenEnq                 78.12                       # Average far read queue length when enqueuing ((Count/Tick))
system.mem_ctrl.avgFarWrQLenEnq                 50.12                       # Average far write queue length when enqueuing ((Count/Tick))
system.mem_ctrl.numWrBacks                    3029339                       # Total number of write backs from DRAM cache to main memory (Unspecified)
system.mem_ctrl.totNumConf                        693                       # Total number of packets conflicted on DRAM cache (Unspecified)
system.mem_ctrl.totNumORBFull                 2367463                       # Total number of packets ORB full (Unspecified)
system.mem_ctrl.totNumCRBFull                       0                       # Total number of packets conflicted yet couldn't enter confBuffer (Unspecified)
system.mem_ctrl.maxNumConf                          2                       # Maximum number of packets conflicted on DRAM cache (Unspecified)
system.mem_ctrl.sentLocRdPort                 3029372                       # stat (Unspecified)
system.mem_ctrl.sentLocWrPort                 3029134                       # stat (Unspecified)
system.mem_ctrl.failedLocRdPort               5357817                       # stat (Unspecified)
system.mem_ctrl.failedLocWrPort               4659763                       # stat (Unspecified)
system.mem_ctrl.recvdRdPort                         0                       # stat (Unspecified)
system.mem_ctrl.sentFarRdPort                 3029236                       # stat (Unspecified)
system.mem_ctrl.sentFarWrPort                 3029315                       # stat (Unspecified)
system.mem_ctrl.failedFarRdPort               4101416                       # stat (Unspecified)
system.mem_ctrl.failedFarWrPort               2710919                       # stat (Unspecified)
system.mem_ctrl.totPktsServiceTime         4789011830                       # stat (Unspecified)
system.mem_ctrl.totPktsORBTime             4788429768                       # stat (Unspecified)
system.mem_ctrl.totTimeFarRdtoSend         1203520291                       # stat (Unspecified)
system.mem_ctrl.totTimeFarRdtoRecv          968755421                       # stat (Unspecified)
system.mem_ctrl.totTimeFarWrtoSend                  0                       # stat (Unspecified)
system.mem_ctrl.totTimeInLocRead           2088709068                       # stat (Unspecified)
system.mem_ctrl.totTimeInLocWrite           524196515                       # stat (Unspecified)
system.mem_ctrl.totTimeInFarRead           2173351269                       # stat (Unspecified)
system.mem_ctrl.numTotHits                          0                       # stat (Unspecified)
system.mem_ctrl.numTotMisses                  3029381                       # stat (Unspecified)
system.mem_ctrl.numColdMisses                  990328                       # stat (Unspecified)
system.mem_ctrl.numHotMisses                  2039053                       # stat (Unspecified)
system.mem_ctrl.numRdMissClean                3029381                       # stat (Unspecified)
system.mem_ctrl.numRdMissDirty                      0                       # stat (Unspecified)
system.mem_ctrl.numRdHit                            0                       # stat (Unspecified)
system.mem_ctrl.numWrMissClean                      0                       # stat (Unspecified)
system.mem_ctrl.numWrMissDirty                      0                       # stat (Unspecified)
system.mem_ctrl.numWrHit                            0                       # stat (Unspecified)
system.mem_ctrl.numRdHitDirty                       0                       # stat (Unspecified)
system.mem_ctrl.numRdHitClean                       0                       # stat (Unspecified)
system.mem_ctrl.numWrHitDirty                       0                       # stat (Unspecified)
system.mem_ctrl.numWrHitClean                       0                       # stat (Unspecified)
system.mem_ctrl.power_state.pwrStateResidencyTicks::UNDEFINED  20000007886                       # Cumulative time (in ticks) in various power states (Tick)
system.workload.inst.arm                            0                       # number of arm instructions executed (Count)
system.workload.inst.quiesce                        0                       # number of quiesce instructions executed (Count)

---------- End Simulation Statistics   ----------
