
---------- Begin Simulation Statistics ----------
simSeconds                                   0.010001                       # Number of seconds simulated (Second)
simTicks                                  10000810256                       # Number of ticks simulated (Tick)
finalTick                                 10000810256                       # Number of ticks from beginning of simulation (restored from checkpoints and never reset) (Tick)
simFreq                                  1000000000000                       # The number of ticks per simulated second ((Tick/Second))
hostSeconds                                     60.26                       # Real time elapsed on the host (Second)
hostTickRate                                165957066                       # The number of ticks simulated per host second (ticks/s) ((Tick/Second))
hostMemory                                    4122744                       # Number of bytes of host memory used (Byte)
system.clk_domain.clock                           250                       # Clock period in ticks (Tick)
system.clk_domain.voltage_domain.voltage            1                       # Voltage in Volts (Volt)
system.far_mem_ctrl.avgPriority_writebacks::samples   2445412.00                       # Average QoS priority value for accepted requests (Count)
system.far_mem_ctrl.priorityMinLatency   0.000000017492                       # per QoS priority minimum request to response latency (Second)
system.far_mem_ctrl.priorityMaxLatency   0.000131174046                       # per QoS priority maximum request to response latency (Second)
system.far_mem_ctrl.numReadWriteTurnArounds            0                       # Number of turnarounds from READ to WRITE (Count)
system.far_mem_ctrl.numWriteReadTurnArounds            0                       # Number of turnarounds from WRITE to READ (Count)
system.far_mem_ctrl.numStayReadState          2543215                       # Number of times bus staying in READ state (Count)
system.far_mem_ctrl.numStayWriteState               0                       # Number of times bus staying in WRITE state (Count)
system.far_mem_ctrl.readReqs                  1635461                       # Number of read requests accepted (Count)
system.far_mem_ctrl.writeReqs                 1635334                       # Number of write requests accepted (Count)
system.far_mem_ctrl.readBursts                1635461                       # Number of controller read bursts, including those serviced by the write queue (Count)
system.far_mem_ctrl.writeBursts               1635334                       # Number of controller write bursts, including those merged in the write queue (Count)
system.far_mem_ctrl.servicedByWrQ                4665                       # Number of controller read bursts serviced by the write queue (Count)
system.far_mem_ctrl.mergedWrBursts             820718                       # Number of controller write bursts merged with an existing one (Count)
system.far_mem_ctrl.avgRdQLen                   52.21                       # Average read queue length when enqueuing ((Count/Tick))
system.far_mem_ctrl.avgWrQLen                   99.36                       # Average write queue length when enqueuing ((Count/Tick))
system.far_mem_ctrl.numRdRetry                1829766                       # Number of times read queue was full causing retry (Count)
system.far_mem_ctrl.numWrRetry                1022789                       # Number of times write queue was full causing retry (Count)
system.far_mem_ctrl.readPktSize::0                  0                       # Read request sizes (log2) (Count)
system.far_mem_ctrl.readPktSize::1                  0                       # Read request sizes (log2) (Count)
system.far_mem_ctrl.readPktSize::2                  0                       # Read request sizes (log2) (Count)
system.far_mem_ctrl.readPktSize::3                  0                       # Read request sizes (log2) (Count)
system.far_mem_ctrl.readPktSize::4                  0                       # Read request sizes (log2) (Count)
system.far_mem_ctrl.readPktSize::5                  0                       # Read request sizes (log2) (Count)
system.far_mem_ctrl.readPktSize::6            1635461                       # Read request sizes (log2) (Count)
system.far_mem_ctrl.writePktSize::0                 0                       # Write request sizes (log2) (Count)
system.far_mem_ctrl.writePktSize::1                 0                       # Write request sizes (log2) (Count)
system.far_mem_ctrl.writePktSize::2                 0                       # Write request sizes (log2) (Count)
system.far_mem_ctrl.writePktSize::3                 0                       # Write request sizes (log2) (Count)
system.far_mem_ctrl.writePktSize::4                 0                       # Write request sizes (log2) (Count)
system.far_mem_ctrl.writePktSize::5                 0                       # Write request sizes (log2) (Count)
system.far_mem_ctrl.writePktSize::6           1635334                       # Write request sizes (log2) (Count)
system.far_mem_ctrl.rdQLenPdf::0                 4636                       # What read queue length does an incoming req see (Count)
system.far_mem_ctrl.rdQLenPdf::1                 5254                       # What read queue length does an incoming req see (Count)
system.far_mem_ctrl.rdQLenPdf::2                 5730                       # What read queue length does an incoming req see (Count)
system.far_mem_ctrl.rdQLenPdf::3                 6161                       # What read queue length does an incoming req see (Count)
system.far_mem_ctrl.rdQLenPdf::4                 6537                       # What read queue length does an incoming req see (Count)
system.far_mem_ctrl.rdQLenPdf::5                 6840                       # What read queue length does an incoming req see (Count)
system.far_mem_ctrl.rdQLenPdf::6                 7158                       # What read queue length does an incoming req see (Count)
system.far_mem_ctrl.rdQLenPdf::7                 8249                       # What read queue length does an incoming req see (Count)
system.far_mem_ctrl.rdQLenPdf::8                 8300                       # What read queue length does an incoming req see (Count)
system.far_mem_ctrl.rdQLenPdf::9                 7977                       # What read queue length does an incoming req see (Count)
system.far_mem_ctrl.rdQLenPdf::10                9542                       # What read queue length does an incoming req see (Count)
system.far_mem_ctrl.rdQLenPdf::11               15935                       # What read queue length does an incoming req see (Count)
system.far_mem_ctrl.rdQLenPdf::12               14013                       # What read queue length does an incoming req see (Count)
system.far_mem_ctrl.rdQLenPdf::13               14459                       # What read queue length does an incoming req see (Count)
system.far_mem_ctrl.rdQLenPdf::14               18305                       # What read queue length does an incoming req see (Count)
system.far_mem_ctrl.rdQLenPdf::15               21552                       # What read queue length does an incoming req see (Count)
system.far_mem_ctrl.rdQLenPdf::16               22186                       # What read queue length does an incoming req see (Count)
system.far_mem_ctrl.rdQLenPdf::17               20735                       # What read queue length does an incoming req see (Count)
system.far_mem_ctrl.rdQLenPdf::18               18387                       # What read queue length does an incoming req see (Count)
system.far_mem_ctrl.rdQLenPdf::19               15881                       # What read queue length does an incoming req see (Count)
system.far_mem_ctrl.rdQLenPdf::20               13567                       # What read queue length does an incoming req see (Count)
system.far_mem_ctrl.rdQLenPdf::21               11751                       # What read queue length does an incoming req see (Count)
system.far_mem_ctrl.rdQLenPdf::22               10537                       # What read queue length does an incoming req see (Count)
system.far_mem_ctrl.rdQLenPdf::23               10083                       # What read queue length does an incoming req see (Count)
system.far_mem_ctrl.rdQLenPdf::24                9932                       # What read queue length does an incoming req see (Count)
system.far_mem_ctrl.rdQLenPdf::25                9976                       # What read queue length does an incoming req see (Count)
system.far_mem_ctrl.rdQLenPdf::26                9983                       # What read queue length does an incoming req see (Count)
system.far_mem_ctrl.rdQLenPdf::27                9946                       # What read queue length does an incoming req see (Count)
system.far_mem_ctrl.rdQLenPdf::28               10019                       # What read queue length does an incoming req see (Count)
system.far_mem_ctrl.rdQLenPdf::29               10160                       # What read queue length does an incoming req see (Count)
system.far_mem_ctrl.rdQLenPdf::30               10272                       # What read queue length does an incoming req see (Count)
system.far_mem_ctrl.rdQLenPdf::31               10320                       # What read queue length does an incoming req see (Count)
system.far_mem_ctrl.rdQLenPdf::32               10315                       # What read queue length does an incoming req see (Count)
system.far_mem_ctrl.rdQLenPdf::33               10381                       # What read queue length does an incoming req see (Count)
system.far_mem_ctrl.rdQLenPdf::34               10329                       # What read queue length does an incoming req see (Count)
system.far_mem_ctrl.rdQLenPdf::35               10515                       # What read queue length does an incoming req see (Count)
system.far_mem_ctrl.rdQLenPdf::36               10480                       # What read queue length does an incoming req see (Count)
system.far_mem_ctrl.rdQLenPdf::37               10334                       # What read queue length does an incoming req see (Count)
system.far_mem_ctrl.rdQLenPdf::38               10299                       # What read queue length does an incoming req see (Count)
system.far_mem_ctrl.rdQLenPdf::39               10265                       # What read queue length does an incoming req see (Count)
system.far_mem_ctrl.rdQLenPdf::40               10224                       # What read queue length does an incoming req see (Count)
system.far_mem_ctrl.rdQLenPdf::41               10067                       # What read queue length does an incoming req see (Count)
system.far_mem_ctrl.rdQLenPdf::42               10078                       # What read queue length does an incoming req see (Count)
system.far_mem_ctrl.rdQLenPdf::43               10174                       # What read queue length does an incoming req see (Count)
system.far_mem_ctrl.rdQLenPdf::44                9990                       # What read queue length does an incoming req see (Count)
system.far_mem_ctrl.rdQLenPdf::45               10099                       # What read queue length does an incoming req see (Count)
system.far_mem_ctrl.rdQLenPdf::46               10105                       # What read queue length does an incoming req see (Count)
system.far_mem_ctrl.rdQLenPdf::47               10065                       # What read queue length does an incoming req see (Count)
system.far_mem_ctrl.rdQLenPdf::48               10238                       # What read queue length does an incoming req see (Count)
system.far_mem_ctrl.rdQLenPdf::49               10066                       # What read queue length does an incoming req see (Count)
system.far_mem_ctrl.rdQLenPdf::50               10116                       # What read queue length does an incoming req see (Count)
system.far_mem_ctrl.rdQLenPdf::51               10070                       # What read queue length does an incoming req see (Count)
system.far_mem_ctrl.rdQLenPdf::52               10035                       # What read queue length does an incoming req see (Count)
system.far_mem_ctrl.rdQLenPdf::53               10104                       # What read queue length does an incoming req see (Count)
system.far_mem_ctrl.rdQLenPdf::54                9925                       # What read queue length does an incoming req see (Count)
system.far_mem_ctrl.rdQLenPdf::55                9938                       # What read queue length does an incoming req see (Count)
system.far_mem_ctrl.rdQLenPdf::56                9998                       # What read queue length does an incoming req see (Count)
system.far_mem_ctrl.rdQLenPdf::57               10062                       # What read queue length does an incoming req see (Count)
system.far_mem_ctrl.rdQLenPdf::58                9964                       # What read queue length does an incoming req see (Count)
system.far_mem_ctrl.rdQLenPdf::59               10036                       # What read queue length does an incoming req see (Count)
system.far_mem_ctrl.rdQLenPdf::60               10130                       # What read queue length does an incoming req see (Count)
system.far_mem_ctrl.rdQLenPdf::61               10140                       # What read queue length does an incoming req see (Count)
system.far_mem_ctrl.rdQLenPdf::62               10089                       # What read queue length does an incoming req see (Count)
system.far_mem_ctrl.rdQLenPdf::63              951782                       # What read queue length does an incoming req see (Count)
system.far_mem_ctrl.wrQLenPdf::0                    1                       # What write queue length does an incoming req see (Count)
system.far_mem_ctrl.wrQLenPdf::1                    1                       # What write queue length does an incoming req see (Count)
system.far_mem_ctrl.wrQLenPdf::2                    1                       # What write queue length does an incoming req see (Count)
system.far_mem_ctrl.wrQLenPdf::3                    1                       # What write queue length does an incoming req see (Count)
system.far_mem_ctrl.wrQLenPdf::4                    1                       # What write queue length does an incoming req see (Count)
system.far_mem_ctrl.wrQLenPdf::5                    1                       # What write queue length does an incoming req see (Count)
system.far_mem_ctrl.wrQLenPdf::6                    1                       # What write queue length does an incoming req see (Count)
system.far_mem_ctrl.wrQLenPdf::7                    1                       # What write queue length does an incoming req see (Count)
system.far_mem_ctrl.wrQLenPdf::8                    1                       # What write queue length does an incoming req see (Count)
system.far_mem_ctrl.wrQLenPdf::9                    1                       # What write queue length does an incoming req see (Count)
system.far_mem_ctrl.wrQLenPdf::10                   1                       # What write queue length does an incoming req see (Count)
system.far_mem_ctrl.wrQLenPdf::11                   1                       # What write queue length does an incoming req see (Count)
system.far_mem_ctrl.wrQLenPdf::12                   1                       # What write queue length does an incoming req see (Count)
system.far_mem_ctrl.wrQLenPdf::13                   1                       # What write queue length does an incoming req see (Count)
system.far_mem_ctrl.wrQLenPdf::14                   1                       # What write queue length does an incoming req see (Count)
system.far_mem_ctrl.wrQLenPdf::15                   1                       # What write queue length does an incoming req see (Count)
system.far_mem_ctrl.wrQLenPdf::16                   1                       # What write queue length does an incoming req see (Count)
system.far_mem_ctrl.wrQLenPdf::17                   1                       # What write queue length does an incoming req see (Count)
system.far_mem_ctrl.wrQLenPdf::18                   1                       # What write queue length does an incoming req see (Count)
system.far_mem_ctrl.wrQLenPdf::19                   1                       # What write queue length does an incoming req see (Count)
system.far_mem_ctrl.wrQLenPdf::20                   1                       # What write queue length does an incoming req see (Count)
system.far_mem_ctrl.wrQLenPdf::21                   1                       # What write queue length does an incoming req see (Count)
system.far_mem_ctrl.wrQLenPdf::22                   1                       # What write queue length does an incoming req see (Count)
system.far_mem_ctrl.wrQLenPdf::23                   1                       # What write queue length does an incoming req see (Count)
system.far_mem_ctrl.wrQLenPdf::24                   1                       # What write queue length does an incoming req see (Count)
system.far_mem_ctrl.wrQLenPdf::25                   1                       # What write queue length does an incoming req see (Count)
system.far_mem_ctrl.wrQLenPdf::26                   1                       # What write queue length does an incoming req see (Count)
system.far_mem_ctrl.wrQLenPdf::27                   1                       # What write queue length does an incoming req see (Count)
system.far_mem_ctrl.wrQLenPdf::28                   1                       # What write queue length does an incoming req see (Count)
system.far_mem_ctrl.wrQLenPdf::29                   1                       # What write queue length does an incoming req see (Count)
system.far_mem_ctrl.wrQLenPdf::30                   1                       # What write queue length does an incoming req see (Count)
system.far_mem_ctrl.wrQLenPdf::31                   1                       # What write queue length does an incoming req see (Count)
system.far_mem_ctrl.wrQLenPdf::32                   1                       # What write queue length does an incoming req see (Count)
system.far_mem_ctrl.wrQLenPdf::33                   1                       # What write queue length does an incoming req see (Count)
system.far_mem_ctrl.wrQLenPdf::34                   1                       # What write queue length does an incoming req see (Count)
system.far_mem_ctrl.wrQLenPdf::35                   1                       # What write queue length does an incoming req see (Count)
system.far_mem_ctrl.wrQLenPdf::36                   1                       # What write queue length does an incoming req see (Count)
system.far_mem_ctrl.wrQLenPdf::37                   1                       # What write queue length does an incoming req see (Count)
system.far_mem_ctrl.wrQLenPdf::38                   1                       # What write queue length does an incoming req see (Count)
system.far_mem_ctrl.wrQLenPdf::39                   1                       # What write queue length does an incoming req see (Count)
system.far_mem_ctrl.wrQLenPdf::40                   1                       # What write queue length does an incoming req see (Count)
system.far_mem_ctrl.wrQLenPdf::41                   1                       # What write queue length does an incoming req see (Count)
system.far_mem_ctrl.wrQLenPdf::42                   1                       # What write queue length does an incoming req see (Count)
system.far_mem_ctrl.wrQLenPdf::43                   1                       # What write queue length does an incoming req see (Count)
system.far_mem_ctrl.wrQLenPdf::44                   1                       # What write queue length does an incoming req see (Count)
system.far_mem_ctrl.wrQLenPdf::45                   1                       # What write queue length does an incoming req see (Count)
system.far_mem_ctrl.wrQLenPdf::46                   1                       # What write queue length does an incoming req see (Count)
system.far_mem_ctrl.wrQLenPdf::47                4986                       # What write queue length does an incoming req see (Count)
system.far_mem_ctrl.wrQLenPdf::48                6080                       # What write queue length does an incoming req see (Count)
system.far_mem_ctrl.wrQLenPdf::49                6638                       # What write queue length does an incoming req see (Count)
system.far_mem_ctrl.wrQLenPdf::50                6753                       # What write queue length does an incoming req see (Count)
system.far_mem_ctrl.wrQLenPdf::51                6872                       # What write queue length does an incoming req see (Count)
system.far_mem_ctrl.wrQLenPdf::52                7081                       # What write queue length does an incoming req see (Count)
system.far_mem_ctrl.wrQLenPdf::53                7172                       # What write queue length does an incoming req see (Count)
system.far_mem_ctrl.wrQLenPdf::54                7186                       # What write queue length does an incoming req see (Count)
system.far_mem_ctrl.wrQLenPdf::55                7339                       # What write queue length does an incoming req see (Count)
system.far_mem_ctrl.wrQLenPdf::56                7481                       # What write queue length does an incoming req see (Count)
system.far_mem_ctrl.wrQLenPdf::57                7529                       # What write queue length does an incoming req see (Count)
system.far_mem_ctrl.wrQLenPdf::58                7535                       # What write queue length does an incoming req see (Count)
system.far_mem_ctrl.wrQLenPdf::59                7669                       # What write queue length does an incoming req see (Count)
system.far_mem_ctrl.wrQLenPdf::60                7513                       # What write queue length does an incoming req see (Count)
system.far_mem_ctrl.wrQLenPdf::61                7539                       # What write queue length does an incoming req see (Count)
system.far_mem_ctrl.wrQLenPdf::62                7539                       # What write queue length does an incoming req see (Count)
system.far_mem_ctrl.wrQLenPdf::63                7400                       # What write queue length does an incoming req see (Count)
system.far_mem_ctrl.wrQLenPdf::64                7365                       # What write queue length does an incoming req see (Count)
system.far_mem_ctrl.wrQLenPdf::65                7388                       # What write queue length does an incoming req see (Count)
system.far_mem_ctrl.wrQLenPdf::66                7271                       # What write queue length does an incoming req see (Count)
system.far_mem_ctrl.wrQLenPdf::67                7271                       # What write queue length does an incoming req see (Count)
system.far_mem_ctrl.wrQLenPdf::68                7352                       # What write queue length does an incoming req see (Count)
system.far_mem_ctrl.wrQLenPdf::69                7297                       # What write queue length does an incoming req see (Count)
system.far_mem_ctrl.wrQLenPdf::70                7270                       # What write queue length does an incoming req see (Count)
system.far_mem_ctrl.wrQLenPdf::71                7287                       # What write queue length does an incoming req see (Count)
system.far_mem_ctrl.wrQLenPdf::72                7169                       # What write queue length does an incoming req see (Count)
system.far_mem_ctrl.wrQLenPdf::73                7173                       # What write queue length does an incoming req see (Count)
system.far_mem_ctrl.wrQLenPdf::74                6967                       # What write queue length does an incoming req see (Count)
system.far_mem_ctrl.wrQLenPdf::75                6849                       # What write queue length does an incoming req see (Count)
system.far_mem_ctrl.wrQLenPdf::76                6776                       # What write queue length does an incoming req see (Count)
system.far_mem_ctrl.wrQLenPdf::77                6703                       # What write queue length does an incoming req see (Count)
system.far_mem_ctrl.wrQLenPdf::78                6738                       # What write queue length does an incoming req see (Count)
system.far_mem_ctrl.wrQLenPdf::79                6733                       # What write queue length does an incoming req see (Count)
system.far_mem_ctrl.wrQLenPdf::80                6726                       # What write queue length does an incoming req see (Count)
system.far_mem_ctrl.wrQLenPdf::81                6619                       # What write queue length does an incoming req see (Count)
system.far_mem_ctrl.wrQLenPdf::82                6586                       # What write queue length does an incoming req see (Count)
system.far_mem_ctrl.wrQLenPdf::83                6507                       # What write queue length does an incoming req see (Count)
system.far_mem_ctrl.wrQLenPdf::84                6529                       # What write queue length does an incoming req see (Count)
system.far_mem_ctrl.wrQLenPdf::85                6485                       # What write queue length does an incoming req see (Count)
system.far_mem_ctrl.wrQLenPdf::86                6494                       # What write queue length does an incoming req see (Count)
system.far_mem_ctrl.wrQLenPdf::87                6477                       # What write queue length does an incoming req see (Count)
system.far_mem_ctrl.wrQLenPdf::88                6408                       # What write queue length does an incoming req see (Count)
system.far_mem_ctrl.wrQLenPdf::89                6249                       # What write queue length does an incoming req see (Count)
system.far_mem_ctrl.wrQLenPdf::90                6211                       # What write queue length does an incoming req see (Count)
system.far_mem_ctrl.wrQLenPdf::91                6038                       # What write queue length does an incoming req see (Count)
system.far_mem_ctrl.wrQLenPdf::92                5949                       # What write queue length does an incoming req see (Count)
system.far_mem_ctrl.wrQLenPdf::93                6014                       # What write queue length does an incoming req see (Count)
system.far_mem_ctrl.wrQLenPdf::94                6140                       # What write queue length does an incoming req see (Count)
system.far_mem_ctrl.wrQLenPdf::95                6073                       # What write queue length does an incoming req see (Count)
system.far_mem_ctrl.wrQLenPdf::96                5907                       # What write queue length does an incoming req see (Count)
system.far_mem_ctrl.wrQLenPdf::97                5806                       # What write queue length does an incoming req see (Count)
system.far_mem_ctrl.wrQLenPdf::98                5741                       # What write queue length does an incoming req see (Count)
system.far_mem_ctrl.wrQLenPdf::99                5736                       # What write queue length does an incoming req see (Count)
system.far_mem_ctrl.wrQLenPdf::100               5553                       # What write queue length does an incoming req see (Count)
system.far_mem_ctrl.wrQLenPdf::101               5583                       # What write queue length does an incoming req see (Count)
system.far_mem_ctrl.wrQLenPdf::102               5339                       # What write queue length does an incoming req see (Count)
system.far_mem_ctrl.wrQLenPdf::103               5236                       # What write queue length does an incoming req see (Count)
system.far_mem_ctrl.wrQLenPdf::104               5220                       # What write queue length does an incoming req see (Count)
system.far_mem_ctrl.wrQLenPdf::105               5061                       # What write queue length does an incoming req see (Count)
system.far_mem_ctrl.wrQLenPdf::106               5193                       # What write queue length does an incoming req see (Count)
system.far_mem_ctrl.wrQLenPdf::107               5206                       # What write queue length does an incoming req see (Count)
system.far_mem_ctrl.wrQLenPdf::108               5272                       # What write queue length does an incoming req see (Count)
system.far_mem_ctrl.wrQLenPdf::109               5215                       # What write queue length does an incoming req see (Count)
system.far_mem_ctrl.wrQLenPdf::110               5305                       # What write queue length does an incoming req see (Count)
system.far_mem_ctrl.wrQLenPdf::111               5346                       # What write queue length does an incoming req see (Count)
system.far_mem_ctrl.wrQLenPdf::112               5186                       # What write queue length does an incoming req see (Count)
system.far_mem_ctrl.wrQLenPdf::113               5087                       # What write queue length does an incoming req see (Count)
system.far_mem_ctrl.wrQLenPdf::114               5104                       # What write queue length does an incoming req see (Count)
system.far_mem_ctrl.wrQLenPdf::115               4969                       # What write queue length does an incoming req see (Count)
system.far_mem_ctrl.wrQLenPdf::116               4978                       # What write queue length does an incoming req see (Count)
system.far_mem_ctrl.wrQLenPdf::117               4966                       # What write queue length does an incoming req see (Count)
system.far_mem_ctrl.wrQLenPdf::118               5012                       # What write queue length does an incoming req see (Count)
system.far_mem_ctrl.wrQLenPdf::119               4937                       # What write queue length does an incoming req see (Count)
system.far_mem_ctrl.wrQLenPdf::120               4967                       # What write queue length does an incoming req see (Count)
system.far_mem_ctrl.wrQLenPdf::121               4985                       # What write queue length does an incoming req see (Count)
system.far_mem_ctrl.wrQLenPdf::122               4851                       # What write queue length does an incoming req see (Count)
system.far_mem_ctrl.wrQLenPdf::123               5204                       # What write queue length does an incoming req see (Count)
system.far_mem_ctrl.wrQLenPdf::124               6200                       # What write queue length does an incoming req see (Count)
system.far_mem_ctrl.wrQLenPdf::125               7709                       # What write queue length does an incoming req see (Count)
system.far_mem_ctrl.wrQLenPdf::126              15634                       # What write queue length does an incoming req see (Count)
system.far_mem_ctrl.wrQLenPdf::127             302635                       # What write queue length does an incoming req see (Count)
system.far_mem_ctrl.rdPerTurnAround::samples         4986                       # Reads before turning the bus around for writes (Count)
system.far_mem_ctrl.rdPerTurnAround::0           4986    100.00%    100.00% # Reads before turning the bus around for writes (Count)
system.far_mem_ctrl.rdPerTurnAround::total         4986                       # Reads before turning the bus around for writes (Count)
system.far_mem_ctrl.wrPerTurnAround::samples         4985                       # Writes before turning the bus around for reads (Count)
system.far_mem_ctrl.wrPerTurnAround::0           4985    100.00%    100.00% # Writes before turning the bus around for reads (Count)
system.far_mem_ctrl.wrPerTurnAround::total         4985                       # Writes before turning the bus around for reads (Count)
system.far_mem_ctrl.bytesReadWrQ               298560                       # Total number of bytes read from write queue (Byte)
system.far_mem_ctrl.bytesReadSys            104669504                       # Total read bytes from the system interface side (Byte)
system.far_mem_ctrl.bytesWrittenSys         104661376                       # Total written bytes from the system interface side (Byte)
system.far_mem_ctrl.avgRdBWSys           10466102377.77517891                       # Average system read bandwidth in Byte/s ((Byte/Second))
system.far_mem_ctrl.avgWrBWSys           10465289643.62745094                       # Average system write bandwidth in Byte/s ((Byte/Second))
system.far_mem_ctrl.totGap                10000741256                       # Total gap between requests (Tick)
system.far_mem_ctrl.avgGap                    3057.59                       # Average gap between requests ((Tick/Count))
system.far_mem_ctrl.requestorReadBytes::writebacks    104370944                       # Per-requestor bytes read from memory (Byte)
system.far_mem_ctrl.requestorWriteBytes::writebacks     52127232                       # Per-requestor bytes write to memory (Byte)
system.far_mem_ctrl.requestorReadRate::writebacks 10436248796.679500579834                       # Per-requestor bytes read from memory rate ((Byte/Second))
system.far_mem_ctrl.requestorWriteRate::writebacks 5212300870.194612503052                       # Per-requestor bytes write to memory rate ((Byte/Second))
system.far_mem_ctrl.requestorReadAccesses::writebacks      1635461                       # Per-requestor read serviced memory accesses (Count)
system.far_mem_ctrl.requestorWriteAccesses::writebacks      1635334                       # Per-requestor write serviced memory accesses (Count)
system.far_mem_ctrl.requestorReadTotalLat::writebacks 413224223360                       # Per-requestor read total memory access latency (Tick)
system.far_mem_ctrl.requestorWriteTotalLat::writebacks 973237076381                       # Per-requestor write total memory access latency (Tick)
system.far_mem_ctrl.requestorReadAvgLat::writebacks    252665.29                       # Per-requestor read average memory access latency ((Tick/Count))
system.far_mem_ctrl.requestorWriteAvgLat::writebacks    595130.46                       # Per-requestor write average memory access latency ((Tick/Count))
system.far_mem_ctrl.dram.bytesRead::writebacks    104669504                       # Number of bytes read from this memory (Byte)
system.far_mem_ctrl.dram.bytesRead::total    104669504                       # Number of bytes read from this memory (Byte)
system.far_mem_ctrl.dram.bytesWritten::writebacks    104661376                       # Number of bytes written to this memory (Byte)
system.far_mem_ctrl.dram.bytesWritten::total    104661376                       # Number of bytes written to this memory (Byte)
system.far_mem_ctrl.dram.numReads::writebacks      1635461                       # Number of read requests responded to by this memory (Count)
system.far_mem_ctrl.dram.numReads::total      1635461                       # Number of read requests responded to by this memory (Count)
system.far_mem_ctrl.dram.numWrites::writebacks      1635334                       # Number of write requests responded to by this memory (Count)
system.far_mem_ctrl.dram.numWrites::total      1635334                       # Number of write requests responded to by this memory (Count)
system.far_mem_ctrl.dram.bwRead::writebacks  10466102378                       # Total read bandwidth from this memory ((Byte/Second))
system.far_mem_ctrl.dram.bwRead::total    10466102378                       # Total read bandwidth from this memory ((Byte/Second))
system.far_mem_ctrl.dram.bwWrite::writebacks  10465289644                       # Write bandwidth from this memory ((Byte/Second))
system.far_mem_ctrl.dram.bwWrite::total   10465289644                       # Write bandwidth from this memory ((Byte/Second))
system.far_mem_ctrl.dram.bwTotal::writebacks  20931392021                       # Total bandwidth to/from this memory ((Byte/Second))
system.far_mem_ctrl.dram.bwTotal::total   20931392021                       # Total bandwidth to/from this memory ((Byte/Second))
system.far_mem_ctrl.dram.readBursts           1630796                       # Number of DRAM read bursts (Count)
system.far_mem_ctrl.dram.writeBursts           814488                       # Number of DRAM write bursts (Count)
system.far_mem_ctrl.dram.perBankRdBursts::0        50821                       # Per bank write bursts (Count)
system.far_mem_ctrl.dram.perBankRdBursts::1        50718                       # Per bank write bursts (Count)
system.far_mem_ctrl.dram.perBankRdBursts::2        51180                       # Per bank write bursts (Count)
system.far_mem_ctrl.dram.perBankRdBursts::3        51051                       # Per bank write bursts (Count)
system.far_mem_ctrl.dram.perBankRdBursts::4        51284                       # Per bank write bursts (Count)
system.far_mem_ctrl.dram.perBankRdBursts::5        51103                       # Per bank write bursts (Count)
system.far_mem_ctrl.dram.perBankRdBursts::6        50681                       # Per bank write bursts (Count)
system.far_mem_ctrl.dram.perBankRdBursts::7        50959                       # Per bank write bursts (Count)
system.far_mem_ctrl.dram.perBankRdBursts::8        50643                       # Per bank write bursts (Count)
system.far_mem_ctrl.dram.perBankRdBursts::9        50970                       # Per bank write bursts (Count)
system.far_mem_ctrl.dram.perBankRdBursts::10        51026                       # Per bank write bursts (Count)
system.far_mem_ctrl.dram.perBankRdBursts::11        50916                       # Per bank write bursts (Count)
system.far_mem_ctrl.dram.perBankRdBursts::12        51377                       # Per bank write bursts (Count)
system.far_mem_ctrl.dram.perBankRdBursts::13        50931                       # Per bank write bursts (Count)
system.far_mem_ctrl.dram.perBankRdBursts::14        50851                       # Per bank write bursts (Count)
system.far_mem_ctrl.dram.perBankRdBursts::15        51259                       # Per bank write bursts (Count)
system.far_mem_ctrl.dram.perBankRdBursts::16        51057                       # Per bank write bursts (Count)
system.far_mem_ctrl.dram.perBankRdBursts::17        50968                       # Per bank write bursts (Count)
system.far_mem_ctrl.dram.perBankRdBursts::18        51040                       # Per bank write bursts (Count)
system.far_mem_ctrl.dram.perBankRdBursts::19        50891                       # Per bank write bursts (Count)
system.far_mem_ctrl.dram.perBankRdBursts::20        50752                       # Per bank write bursts (Count)
system.far_mem_ctrl.dram.perBankRdBursts::21        50745                       # Per bank write bursts (Count)
system.far_mem_ctrl.dram.perBankRdBursts::22        51213                       # Per bank write bursts (Count)
system.far_mem_ctrl.dram.perBankRdBursts::23        51085                       # Per bank write bursts (Count)
system.far_mem_ctrl.dram.perBankRdBursts::24        50701                       # Per bank write bursts (Count)
system.far_mem_ctrl.dram.perBankRdBursts::25        50598                       # Per bank write bursts (Count)
system.far_mem_ctrl.dram.perBankRdBursts::26        50909                       # Per bank write bursts (Count)
system.far_mem_ctrl.dram.perBankRdBursts::27        50911                       # Per bank write bursts (Count)
system.far_mem_ctrl.dram.perBankRdBursts::28        51123                       # Per bank write bursts (Count)
system.far_mem_ctrl.dram.perBankRdBursts::29        50726                       # Per bank write bursts (Count)
system.far_mem_ctrl.dram.perBankRdBursts::30        50930                       # Per bank write bursts (Count)
system.far_mem_ctrl.dram.perBankRdBursts::31        51377                       # Per bank write bursts (Count)
system.far_mem_ctrl.dram.perBankWrBursts::0        32184                       # Per bank write bursts (Count)
system.far_mem_ctrl.dram.perBankWrBursts::1        25054                       # Per bank write bursts (Count)
system.far_mem_ctrl.dram.perBankWrBursts::2        25407                       # Per bank write bursts (Count)
system.far_mem_ctrl.dram.perBankWrBursts::3        25394                       # Per bank write bursts (Count)
system.far_mem_ctrl.dram.perBankWrBursts::4        25599                       # Per bank write bursts (Count)
system.far_mem_ctrl.dram.perBankWrBursts::5        25364                       # Per bank write bursts (Count)
system.far_mem_ctrl.dram.perBankWrBursts::6        24992                       # Per bank write bursts (Count)
system.far_mem_ctrl.dram.perBankWrBursts::7        25225                       # Per bank write bursts (Count)
system.far_mem_ctrl.dram.perBankWrBursts::8        24934                       # Per bank write bursts (Count)
system.far_mem_ctrl.dram.perBankWrBursts::9        25229                       # Per bank write bursts (Count)
system.far_mem_ctrl.dram.perBankWrBursts::10        25312                       # Per bank write bursts (Count)
system.far_mem_ctrl.dram.perBankWrBursts::11        25093                       # Per bank write bursts (Count)
system.far_mem_ctrl.dram.perBankWrBursts::12        25536                       # Per bank write bursts (Count)
system.far_mem_ctrl.dram.perBankWrBursts::13        25181                       # Per bank write bursts (Count)
system.far_mem_ctrl.dram.perBankWrBursts::14        25224                       # Per bank write bursts (Count)
system.far_mem_ctrl.dram.perBankWrBursts::15        25522                       # Per bank write bursts (Count)
system.far_mem_ctrl.dram.perBankWrBursts::16        25274                       # Per bank write bursts (Count)
system.far_mem_ctrl.dram.perBankWrBursts::17        25287                       # Per bank write bursts (Count)
system.far_mem_ctrl.dram.perBankWrBursts::18        25292                       # Per bank write bursts (Count)
system.far_mem_ctrl.dram.perBankWrBursts::19        25157                       # Per bank write bursts (Count)
system.far_mem_ctrl.dram.perBankWrBursts::20        25097                       # Per bank write bursts (Count)
system.far_mem_ctrl.dram.perBankWrBursts::21        25124                       # Per bank write bursts (Count)
system.far_mem_ctrl.dram.perBankWrBursts::22        25371                       # Per bank write bursts (Count)
system.far_mem_ctrl.dram.perBankWrBursts::23        25284                       # Per bank write bursts (Count)
system.far_mem_ctrl.dram.perBankWrBursts::24        24994                       # Per bank write bursts (Count)
system.far_mem_ctrl.dram.perBankWrBursts::25        24883                       # Per bank write bursts (Count)
system.far_mem_ctrl.dram.perBankWrBursts::26        25234                       # Per bank write bursts (Count)
system.far_mem_ctrl.dram.perBankWrBursts::27        25234                       # Per bank write bursts (Count)
system.far_mem_ctrl.dram.perBankWrBursts::28        25350                       # Per bank write bursts (Count)
system.far_mem_ctrl.dram.perBankWrBursts::29        25023                       # Per bank write bursts (Count)
system.far_mem_ctrl.dram.perBankWrBursts::30        25106                       # Per bank write bursts (Count)
system.far_mem_ctrl.dram.perBankWrBursts::31        25528                       # Per bank write bursts (Count)
system.far_mem_ctrl.dram.totQLat         384698339728                       # Total ticks spent queuing (Tick)
system.far_mem_ctrl.dram.totBusLat         5433812272                       # Total ticks spent in databus transfers (Tick)
system.far_mem_ctrl.dram.totMemAccLat    413224223360                       # Total ticks spent from burst creation until serviced by the DRAM (Tick)
system.far_mem_ctrl.dram.avgQLat            235896.05                       # Average queueing delay per DRAM burst ((Tick/Count))
system.far_mem_ctrl.dram.avgBusLat            3332.00                       # Average bus latency per DRAM burst ((Tick/Count))
system.far_mem_ctrl.dram.avgMemAccLat       253388.05                       # Average memory access latency per DRAM burst ((Tick/Count))
system.far_mem_ctrl.dram.readRowHits              379                       # Number of row buffer hits during reads (Count)
system.far_mem_ctrl.dram.writeRowHits            2154                       # Number of row buffer hits during writes (Count)
system.far_mem_ctrl.dram.readRowHitRate          0.02                       # Row buffer hit rate for reads (Ratio)
system.far_mem_ctrl.dram.writeRowHitRate         0.26                       # Row buffer hit rate for writes (Ratio)
system.far_mem_ctrl.dram.bytesPerActivate::samples      2442745                       # Bytes accessed per row activation (Byte)
system.far_mem_ctrl.dram.bytesPerActivate::mean    64.066365                       # Bytes accessed per row activation (Byte)
system.far_mem_ctrl.dram.bytesPerActivate::gmean    64.029167                       # Bytes accessed per row activation (Byte)
system.far_mem_ctrl.dram.bytesPerActivate::stdev     5.251092                       # Bytes accessed per row activation (Byte)
system.far_mem_ctrl.dram.bytesPerActivate::0-127      2441512     99.95%     99.95% # Bytes accessed per row activation (Byte)
system.far_mem_ctrl.dram.bytesPerActivate::128-255         1063      0.04%     99.99% # Bytes accessed per row activation (Byte)
system.far_mem_ctrl.dram.bytesPerActivate::256-383           43      0.00%     99.99% # Bytes accessed per row activation (Byte)
system.far_mem_ctrl.dram.bytesPerActivate::384-511           25      0.00%    100.00% # Bytes accessed per row activation (Byte)
system.far_mem_ctrl.dram.bytesPerActivate::512-639           25      0.00%    100.00% # Bytes accessed per row activation (Byte)
system.far_mem_ctrl.dram.bytesPerActivate::640-767           21      0.00%    100.00% # Bytes accessed per row activation (Byte)
system.far_mem_ctrl.dram.bytesPerActivate::768-895           16      0.00%    100.00% # Bytes accessed per row activation (Byte)
system.far_mem_ctrl.dram.bytesPerActivate::896-1023            7      0.00%    100.00% # Bytes accessed per row activation (Byte)
system.far_mem_ctrl.dram.bytesPerActivate::1024-1151           33      0.00%    100.00% # Bytes accessed per row activation (Byte)
system.far_mem_ctrl.dram.bytesPerActivate::total      2442745                       # Bytes accessed per row activation (Byte)
system.far_mem_ctrl.dram.bytesRead          104370944                       # Total bytes read (Byte)
system.far_mem_ctrl.dram.bytesWritten        52127232                       # Total bytes written (Byte)
system.far_mem_ctrl.dram.avgRdBW         10436.248797                       # Average DRAM read bandwidth in MiBytes/s ((Byte/Second))
system.far_mem_ctrl.dram.avgWrBW          5212.300870                       # Average DRAM write bandwidth in MiBytes/s ((Byte/Second))
system.far_mem_ctrl.dram.peakBW              19207.00                       # Theoretical peak bandwidth in MiByte/s ((Byte/Second))
system.far_mem_ctrl.dram.busUtil                81.47                       # Data bus utilization in percentage (Ratio)
system.far_mem_ctrl.dram.busUtilRead            54.34                       # Data bus utilization in percentage for reads (Ratio)
system.far_mem_ctrl.dram.busUtilWrite           27.14                       # Data bus utilization in percentage for writes (Ratio)
system.far_mem_ctrl.dram.pageHitRate             0.10                       # Row buffer hit rate, read and write combined (Ratio)
system.far_mem_ctrl.dram.power_state.pwrStateResidencyTicks::UNDEFINED  10000810256                       # Cumulative time (in ticks) in various power states (Tick)
system.far_mem_ctrl.dram.rank0.actEnergy 3820477437.504008                       # Energy for activate commands per rank (pJ) (Joule)
system.far_mem_ctrl.dram.rank0.preEnergy 5079221870.251194                       # Energy for precharge commands per rank (pJ) (Joule)
system.far_mem_ctrl.dram.rank0.readEnergy 3431387055.936002                       # Energy for read commands per rank (pJ) (Joule)
system.far_mem_ctrl.dram.rank0.writeEnergy 1545670204.511999                       # Energy for write commands per rank (pJ) (Joule)
system.far_mem_ctrl.dram.rank0.refreshEnergy 1778824873.324749                       # Energy for refresh commands per rank (pJ) (Joule)
system.far_mem_ctrl.dram.rank0.actBackEnergy 8452062873.979196                       # Energy for active background per rank (pJ) (Joule)
system.far_mem_ctrl.dram.rank0.preBackEnergy 34288743.014400                       # Energy for precharge background per rank (pJ) (Joule)
system.far_mem_ctrl.dram.rank0.actPowerDownEnergy            0                       # Energy for active power-down per rank (pJ) (Joule)
system.far_mem_ctrl.dram.rank0.prePowerDownEnergy            0                       # Energy for precharge power-down per rank (pJ) (Joule)
system.far_mem_ctrl.dram.rank0.selfRefreshEnergy            0                       # Energy for self refresh per rank (pJ) (Joule)
system.far_mem_ctrl.dram.rank0.totalEnergy 24141933058.521614                       # Total energy per rank (pJ) (Joule)
system.far_mem_ctrl.dram.rank0.averagePower  2413.997710                       # Core power per rank (mW) (Watt)
system.far_mem_ctrl.dram.rank0.totalIdleTime            0                       # Total Idle time Per DRAM Rank (Tick)
system.far_mem_ctrl.dram.rank0.pwrStateTime::IDLE     16888151                       # Time in different power states (Tick)
system.far_mem_ctrl.dram.rank0.pwrStateTime::REF    449400000                       # Time in different power states (Tick)
system.far_mem_ctrl.dram.rank0.pwrStateTime::SREF            0                       # Time in different power states (Tick)
system.far_mem_ctrl.dram.rank0.pwrStateTime::PRE_PDN            0                       # Time in different power states (Tick)
system.far_mem_ctrl.dram.rank0.pwrStateTime::ACT   9534522105                       # Time in different power states (Tick)
system.far_mem_ctrl.dram.rank0.pwrStateTime::ACT_PDN            0                       # Time in different power states (Tick)
system.far_mem_ctrl.dram.rank1.actEnergy 3797857129.247996                       # Energy for activate commands per rank (pJ) (Joule)
system.far_mem_ctrl.dram.rank1.preEnergy 5049169192.132792                       # Energy for precharge commands per rank (pJ) (Joule)
system.far_mem_ctrl.dram.rank1.readEnergy 3428257556.236801                       # Energy for read commands per rank (pJ) (Joule)
system.far_mem_ctrl.dram.rank1.writeEnergy 1515549617.568001                       # Energy for write commands per rank (pJ) (Joule)
system.far_mem_ctrl.dram.rank1.refreshEnergy 1778824873.324749                       # Energy for refresh commands per rank (pJ) (Joule)
system.far_mem_ctrl.dram.rank1.actBackEnergy 8451614181.528011                       # Energy for active background per rank (pJ) (Joule)
system.far_mem_ctrl.dram.rank1.preBackEnergy 34633501.056000                       # Energy for precharge background per rank (pJ) (Joule)
system.far_mem_ctrl.dram.rank1.actPowerDownEnergy            0                       # Energy for active power-down per rank (pJ) (Joule)
system.far_mem_ctrl.dram.rank1.prePowerDownEnergy            0                       # Energy for precharge power-down per rank (pJ) (Joule)
system.far_mem_ctrl.dram.rank1.selfRefreshEnergy            0                       # Energy for self refresh per rank (pJ) (Joule)
system.far_mem_ctrl.dram.rank1.totalEnergy 24055906051.094398                       # Total energy per rank (pJ) (Joule)
system.far_mem_ctrl.dram.rank1.averagePower  2405.395706                       # Core power per rank (mW) (Watt)
system.far_mem_ctrl.dram.rank1.totalIdleTime            0                       # Total Idle time Per DRAM Rank (Tick)
system.far_mem_ctrl.dram.rank1.pwrStateTime::IDLE     17403248                       # Time in different power states (Tick)
system.far_mem_ctrl.dram.rank1.pwrStateTime::REF    449400000                       # Time in different power states (Tick)
system.far_mem_ctrl.dram.rank1.pwrStateTime::SREF            0                       # Time in different power states (Tick)
system.far_mem_ctrl.dram.rank1.pwrStateTime::PRE_PDN            0                       # Time in different power states (Tick)
system.far_mem_ctrl.dram.rank1.pwrStateTime::ACT   9534007008                       # Time in different power states (Tick)
system.far_mem_ctrl.dram.rank1.pwrStateTime::ACT_PDN            0                       # Time in different power states (Tick)
system.far_mem_ctrl.power_state.pwrStateResidencyTicks::UNDEFINED  10000810256                       # Cumulative time (in ticks) in various power states (Tick)
system.generator.numSuppressed                      0                       # Number of suppressed packets to non-memory space (Count)
system.generator.numPackets                   1635462                       # Number of packets generated (Count)
system.generator.numRetries                   1325822                       # Number of retries (Count)
system.generator.retryTicks                9687680085                       # Time spent waiting due to back-pressure (Tick)
system.generator.bytesRead                  104669504                       # Number of bytes read (Byte)
system.generator.bytesWritten                       0                       # Number of bytes written (Byte)
system.generator.totalReadLatency        2133791389988                       # Total latency of read requests (Tick)
system.generator.totalWriteLatency                  0                       # Total latency of write requests (Tick)
system.generator.totalReads                   1635461                       # Total num of reads (Count)
system.generator.totalWrites                        0                       # Total num of writes (Count)
system.generator.avgReadLatency          1304703.316061                       # Avg latency of read requests ((Tick/Count))
system.generator.avgWriteLatency                  nan                       # Avg latency of write requests ((Tick/Count))
system.generator.readBW                  10466102377.775179                       # Read bandwidth ((Byte/Second))
system.generator.writeBW                            0                       # Write bandwidth ((Byte/Second))
system.generator.power_state.pwrStateResidencyTicks::UNDEFINED  10000810256                       # Cumulative time (in ticks) in various power states (Tick)
system.loc_mem_ctrl.avgPriority_writebacks::samples   6541838.00                       # Average QoS priority value for accepted requests (Count)
system.loc_mem_ctrl.priorityMinLatency   0.000000019000                       # per QoS priority minimum request to response latency (Second)
system.loc_mem_ctrl.priorityMaxLatency   0.000004332316                       # per QoS priority maximum request to response latency (Second)
system.loc_mem_ctrl.numReadWriteTurnArounds            0                       # Number of turnarounds from READ to WRITE (Count)
system.loc_mem_ctrl.numWriteReadTurnArounds            0                       # Number of turnarounds from WRITE to READ (Count)
system.loc_mem_ctrl.numStayReadState          6680638                       # Number of times bus staying in READ state (Count)
system.loc_mem_ctrl.numStayWriteState               0                       # Number of times bus staying in WRITE state (Count)
system.loc_mem_ctrl.readReqs                  1635462                       # Number of read requests accepted (Count)
system.loc_mem_ctrl.writeReqs                 1635461                       # Number of write requests accepted (Count)
system.loc_mem_ctrl.readBursts                3270924                       # Number of controller read bursts, including those serviced by the write queue (Count)
system.loc_mem_ctrl.writeBursts               3270922                       # Number of controller write bursts, including those merged in the write queue (Count)
system.loc_mem_ctrl.servicedByWrQ                   8                       # Number of controller read bursts serviced by the write queue (Count)
system.loc_mem_ctrl.mergedWrBursts                  0                       # Number of controller write bursts merged with an existing one (Count)
system.loc_mem_ctrl.avgRdQLen                   88.28                       # Average read queue length when enqueuing ((Count/Tick))
system.loc_mem_ctrl.avgWrQLen                   72.26                       # Average write queue length when enqueuing ((Count/Tick))
system.loc_mem_ctrl.numRdRetry                3185194                       # Number of times read queue was full causing retry (Count)
system.loc_mem_ctrl.numWrRetry                2938274                       # Number of times write queue was full causing retry (Count)
system.loc_mem_ctrl.readPktSize::0                  0                       # Read request sizes (log2) (Count)
system.loc_mem_ctrl.readPktSize::1                  0                       # Read request sizes (log2) (Count)
system.loc_mem_ctrl.readPktSize::2                  0                       # Read request sizes (log2) (Count)
system.loc_mem_ctrl.readPktSize::3                  0                       # Read request sizes (log2) (Count)
system.loc_mem_ctrl.readPktSize::4                  0                       # Read request sizes (log2) (Count)
system.loc_mem_ctrl.readPktSize::5            3270924                       # Read request sizes (log2) (Count)
system.loc_mem_ctrl.readPktSize::6                  0                       # Read request sizes (log2) (Count)
system.loc_mem_ctrl.writePktSize::0                 0                       # Write request sizes (log2) (Count)
system.loc_mem_ctrl.writePktSize::1                 0                       # Write request sizes (log2) (Count)
system.loc_mem_ctrl.writePktSize::2                 0                       # Write request sizes (log2) (Count)
system.loc_mem_ctrl.writePktSize::3                 0                       # Write request sizes (log2) (Count)
system.loc_mem_ctrl.writePktSize::4                 0                       # Write request sizes (log2) (Count)
system.loc_mem_ctrl.writePktSize::5           3270922                       # Write request sizes (log2) (Count)
system.loc_mem_ctrl.writePktSize::6                 0                       # Write request sizes (log2) (Count)
system.loc_mem_ctrl.rdQLenPdf::0                 4543                       # What read queue length does an incoming req see (Count)
system.loc_mem_ctrl.rdQLenPdf::1                 4760                       # What read queue length does an incoming req see (Count)
system.loc_mem_ctrl.rdQLenPdf::2                 6031                       # What read queue length does an incoming req see (Count)
system.loc_mem_ctrl.rdQLenPdf::3                 6620                       # What read queue length does an incoming req see (Count)
system.loc_mem_ctrl.rdQLenPdf::4                 6797                       # What read queue length does an incoming req see (Count)
system.loc_mem_ctrl.rdQLenPdf::5                 7346                       # What read queue length does an incoming req see (Count)
system.loc_mem_ctrl.rdQLenPdf::6                 7188                       # What read queue length does an incoming req see (Count)
system.loc_mem_ctrl.rdQLenPdf::7                 7791                       # What read queue length does an incoming req see (Count)
system.loc_mem_ctrl.rdQLenPdf::8                 7753                       # What read queue length does an incoming req see (Count)
system.loc_mem_ctrl.rdQLenPdf::9                 8398                       # What read queue length does an incoming req see (Count)
system.loc_mem_ctrl.rdQLenPdf::10                8506                       # What read queue length does an incoming req see (Count)
system.loc_mem_ctrl.rdQLenPdf::11                9328                       # What read queue length does an incoming req see (Count)
system.loc_mem_ctrl.rdQLenPdf::12                9721                       # What read queue length does an incoming req see (Count)
system.loc_mem_ctrl.rdQLenPdf::13               10382                       # What read queue length does an incoming req see (Count)
system.loc_mem_ctrl.rdQLenPdf::14               10528                       # What read queue length does an incoming req see (Count)
system.loc_mem_ctrl.rdQLenPdf::15               10615                       # What read queue length does an incoming req see (Count)
system.loc_mem_ctrl.rdQLenPdf::16               10571                       # What read queue length does an incoming req see (Count)
system.loc_mem_ctrl.rdQLenPdf::17               10202                       # What read queue length does an incoming req see (Count)
system.loc_mem_ctrl.rdQLenPdf::18                9842                       # What read queue length does an incoming req see (Count)
system.loc_mem_ctrl.rdQLenPdf::19                9847                       # What read queue length does an incoming req see (Count)
system.loc_mem_ctrl.rdQLenPdf::20                9912                       # What read queue length does an incoming req see (Count)
system.loc_mem_ctrl.rdQLenPdf::21               10192                       # What read queue length does an incoming req see (Count)
system.loc_mem_ctrl.rdQLenPdf::22               10294                       # What read queue length does an incoming req see (Count)
system.loc_mem_ctrl.rdQLenPdf::23               10417                       # What read queue length does an incoming req see (Count)
system.loc_mem_ctrl.rdQLenPdf::24               10444                       # What read queue length does an incoming req see (Count)
system.loc_mem_ctrl.rdQLenPdf::25               10249                       # What read queue length does an incoming req see (Count)
system.loc_mem_ctrl.rdQLenPdf::26               10073                       # What read queue length does an incoming req see (Count)
system.loc_mem_ctrl.rdQLenPdf::27                9922                       # What read queue length does an incoming req see (Count)
system.loc_mem_ctrl.rdQLenPdf::28                9622                       # What read queue length does an incoming req see (Count)
system.loc_mem_ctrl.rdQLenPdf::29                9204                       # What read queue length does an incoming req see (Count)
system.loc_mem_ctrl.rdQLenPdf::30                8950                       # What read queue length does an incoming req see (Count)
system.loc_mem_ctrl.rdQLenPdf::31                8596                       # What read queue length does an incoming req see (Count)
system.loc_mem_ctrl.rdQLenPdf::32                8429                       # What read queue length does an incoming req see (Count)
system.loc_mem_ctrl.rdQLenPdf::33                8201                       # What read queue length does an incoming req see (Count)
system.loc_mem_ctrl.rdQLenPdf::34                8058                       # What read queue length does an incoming req see (Count)
system.loc_mem_ctrl.rdQLenPdf::35                7887                       # What read queue length does an incoming req see (Count)
system.loc_mem_ctrl.rdQLenPdf::36                7722                       # What read queue length does an incoming req see (Count)
system.loc_mem_ctrl.rdQLenPdf::37                7611                       # What read queue length does an incoming req see (Count)
system.loc_mem_ctrl.rdQLenPdf::38                7522                       # What read queue length does an incoming req see (Count)
system.loc_mem_ctrl.rdQLenPdf::39                7395                       # What read queue length does an incoming req see (Count)
system.loc_mem_ctrl.rdQLenPdf::40               10977                       # What read queue length does an incoming req see (Count)
system.loc_mem_ctrl.rdQLenPdf::41               12524                       # What read queue length does an incoming req see (Count)
system.loc_mem_ctrl.rdQLenPdf::42               12211                       # What read queue length does an incoming req see (Count)
system.loc_mem_ctrl.rdQLenPdf::43               12304                       # What read queue length does an incoming req see (Count)
system.loc_mem_ctrl.rdQLenPdf::44               12872                       # What read queue length does an incoming req see (Count)
system.loc_mem_ctrl.rdQLenPdf::45               12911                       # What read queue length does an incoming req see (Count)
system.loc_mem_ctrl.rdQLenPdf::46               13315                       # What read queue length does an incoming req see (Count)
system.loc_mem_ctrl.rdQLenPdf::47               13565                       # What read queue length does an incoming req see (Count)
system.loc_mem_ctrl.rdQLenPdf::48               13703                       # What read queue length does an incoming req see (Count)
system.loc_mem_ctrl.rdQLenPdf::49               13917                       # What read queue length does an incoming req see (Count)
system.loc_mem_ctrl.rdQLenPdf::50               14502                       # What read queue length does an incoming req see (Count)
system.loc_mem_ctrl.rdQLenPdf::51               14671                       # What read queue length does an incoming req see (Count)
system.loc_mem_ctrl.rdQLenPdf::52               15053                       # What read queue length does an incoming req see (Count)
system.loc_mem_ctrl.rdQLenPdf::53               15384                       # What read queue length does an incoming req see (Count)
system.loc_mem_ctrl.rdQLenPdf::54               15598                       # What read queue length does an incoming req see (Count)
system.loc_mem_ctrl.rdQLenPdf::55               15948                       # What read queue length does an incoming req see (Count)
system.loc_mem_ctrl.rdQLenPdf::56               16616                       # What read queue length does an incoming req see (Count)
system.loc_mem_ctrl.rdQLenPdf::57               17035                       # What read queue length does an incoming req see (Count)
system.loc_mem_ctrl.rdQLenPdf::58               17592                       # What read queue length does an incoming req see (Count)
system.loc_mem_ctrl.rdQLenPdf::59               18259                       # What read queue length does an incoming req see (Count)
system.loc_mem_ctrl.rdQLenPdf::60               18996                       # What read queue length does an incoming req see (Count)
system.loc_mem_ctrl.rdQLenPdf::61               19623                       # What read queue length does an incoming req see (Count)
system.loc_mem_ctrl.rdQLenPdf::62               29050                       # What read queue length does an incoming req see (Count)
system.loc_mem_ctrl.rdQLenPdf::63               32563                       # What read queue length does an incoming req see (Count)
system.loc_mem_ctrl.rdQLenPdf::64               33129                       # What read queue length does an incoming req see (Count)
system.loc_mem_ctrl.rdQLenPdf::65               36147                       # What read queue length does an incoming req see (Count)
system.loc_mem_ctrl.rdQLenPdf::66               35287                       # What read queue length does an incoming req see (Count)
system.loc_mem_ctrl.rdQLenPdf::67               38567                       # What read queue length does an incoming req see (Count)
system.loc_mem_ctrl.rdQLenPdf::68               40788                       # What read queue length does an incoming req see (Count)
system.loc_mem_ctrl.rdQLenPdf::69               43542                       # What read queue length does an incoming req see (Count)
system.loc_mem_ctrl.rdQLenPdf::70               47050                       # What read queue length does an incoming req see (Count)
system.loc_mem_ctrl.rdQLenPdf::71               49881                       # What read queue length does an incoming req see (Count)
system.loc_mem_ctrl.rdQLenPdf::72               53185                       # What read queue length does an incoming req see (Count)
system.loc_mem_ctrl.rdQLenPdf::73               55099                       # What read queue length does an incoming req see (Count)
system.loc_mem_ctrl.rdQLenPdf::74               57818                       # What read queue length does an incoming req see (Count)
system.loc_mem_ctrl.rdQLenPdf::75               59947                       # What read queue length does an incoming req see (Count)
system.loc_mem_ctrl.rdQLenPdf::76               62085                       # What read queue length does an incoming req see (Count)
system.loc_mem_ctrl.rdQLenPdf::77               63478                       # What read queue length does an incoming req see (Count)
system.loc_mem_ctrl.rdQLenPdf::78               65097                       # What read queue length does an incoming req see (Count)
system.loc_mem_ctrl.rdQLenPdf::79               65729                       # What read queue length does an incoming req see (Count)
system.loc_mem_ctrl.rdQLenPdf::80               66776                       # What read queue length does an incoming req see (Count)
system.loc_mem_ctrl.rdQLenPdf::81               67175                       # What read queue length does an incoming req see (Count)
system.loc_mem_ctrl.rdQLenPdf::82               67784                       # What read queue length does an incoming req see (Count)
system.loc_mem_ctrl.rdQLenPdf::83               68033                       # What read queue length does an incoming req see (Count)
system.loc_mem_ctrl.rdQLenPdf::84               68044                       # What read queue length does an incoming req see (Count)
system.loc_mem_ctrl.rdQLenPdf::85               67677                       # What read queue length does an incoming req see (Count)
system.loc_mem_ctrl.rdQLenPdf::86               66923                       # What read queue length does an incoming req see (Count)
system.loc_mem_ctrl.rdQLenPdf::87               66654                       # What read queue length does an incoming req see (Count)
system.loc_mem_ctrl.rdQLenPdf::88               65780                       # What read queue length does an incoming req see (Count)
system.loc_mem_ctrl.rdQLenPdf::89               65001                       # What read queue length does an incoming req see (Count)
system.loc_mem_ctrl.rdQLenPdf::90               64715                       # What read queue length does an incoming req see (Count)
system.loc_mem_ctrl.rdQLenPdf::91               64108                       # What read queue length does an incoming req see (Count)
system.loc_mem_ctrl.rdQLenPdf::92               63914                       # What read queue length does an incoming req see (Count)
system.loc_mem_ctrl.rdQLenPdf::93               63368                       # What read queue length does an incoming req see (Count)
system.loc_mem_ctrl.rdQLenPdf::94               62995                       # What read queue length does an incoming req see (Count)
system.loc_mem_ctrl.rdQLenPdf::95               62870                       # What read queue length does an incoming req see (Count)
system.loc_mem_ctrl.rdQLenPdf::96               62002                       # What read queue length does an incoming req see (Count)
system.loc_mem_ctrl.rdQLenPdf::97               61711                       # What read queue length does an incoming req see (Count)
system.loc_mem_ctrl.rdQLenPdf::98               60935                       # What read queue length does an incoming req see (Count)
system.loc_mem_ctrl.rdQLenPdf::99               60022                       # What read queue length does an incoming req see (Count)
system.loc_mem_ctrl.rdQLenPdf::100              59354                       # What read queue length does an incoming req see (Count)
system.loc_mem_ctrl.rdQLenPdf::101              58681                       # What read queue length does an incoming req see (Count)
system.loc_mem_ctrl.rdQLenPdf::102              56962                       # What read queue length does an incoming req see (Count)
system.loc_mem_ctrl.rdQLenPdf::103              52865                       # What read queue length does an incoming req see (Count)
system.loc_mem_ctrl.rdQLenPdf::104              40829                       # What read queue length does an incoming req see (Count)
system.loc_mem_ctrl.rdQLenPdf::105              23004                       # What read queue length does an incoming req see (Count)
system.loc_mem_ctrl.rdQLenPdf::106               9520                       # What read queue length does an incoming req see (Count)
system.loc_mem_ctrl.rdQLenPdf::107               8296                       # What read queue length does an incoming req see (Count)
system.loc_mem_ctrl.rdQLenPdf::108               7758                       # What read queue length does an incoming req see (Count)
system.loc_mem_ctrl.rdQLenPdf::109               7564                       # What read queue length does an incoming req see (Count)
system.loc_mem_ctrl.rdQLenPdf::110               7250                       # What read queue length does an incoming req see (Count)
system.loc_mem_ctrl.rdQLenPdf::111               7124                       # What read queue length does an incoming req see (Count)
system.loc_mem_ctrl.rdQLenPdf::112               6881                       # What read queue length does an incoming req see (Count)
system.loc_mem_ctrl.rdQLenPdf::113               6789                       # What read queue length does an incoming req see (Count)
system.loc_mem_ctrl.rdQLenPdf::114               6562                       # What read queue length does an incoming req see (Count)
system.loc_mem_ctrl.rdQLenPdf::115               6482                       # What read queue length does an incoming req see (Count)
system.loc_mem_ctrl.rdQLenPdf::116               6281                       # What read queue length does an incoming req see (Count)
system.loc_mem_ctrl.rdQLenPdf::117               6273                       # What read queue length does an incoming req see (Count)
system.loc_mem_ctrl.rdQLenPdf::118               6087                       # What read queue length does an incoming req see (Count)
system.loc_mem_ctrl.rdQLenPdf::119               5993                       # What read queue length does an incoming req see (Count)
system.loc_mem_ctrl.rdQLenPdf::120               5571                       # What read queue length does an incoming req see (Count)
system.loc_mem_ctrl.rdQLenPdf::121               5505                       # What read queue length does an incoming req see (Count)
system.loc_mem_ctrl.rdQLenPdf::122               5577                       # What read queue length does an incoming req see (Count)
system.loc_mem_ctrl.rdQLenPdf::123               5466                       # What read queue length does an incoming req see (Count)
system.loc_mem_ctrl.rdQLenPdf::124               5028                       # What read queue length does an incoming req see (Count)
system.loc_mem_ctrl.rdQLenPdf::125               4867                       # What read queue length does an incoming req see (Count)
system.loc_mem_ctrl.rdQLenPdf::126               4500                       # What read queue length does an incoming req see (Count)
system.loc_mem_ctrl.rdQLenPdf::127               3873                       # What read queue length does an incoming req see (Count)
system.loc_mem_ctrl.wrQLenPdf::0                 3184                       # What write queue length does an incoming req see (Count)
system.loc_mem_ctrl.wrQLenPdf::1                 3580                       # What write queue length does an incoming req see (Count)
system.loc_mem_ctrl.wrQLenPdf::2                 3989                       # What write queue length does an incoming req see (Count)
system.loc_mem_ctrl.wrQLenPdf::3                 4314                       # What write queue length does an incoming req see (Count)
system.loc_mem_ctrl.wrQLenPdf::4                 4622                       # What write queue length does an incoming req see (Count)
system.loc_mem_ctrl.wrQLenPdf::5                 4894                       # What write queue length does an incoming req see (Count)
system.loc_mem_ctrl.wrQLenPdf::6                 5264                       # What write queue length does an incoming req see (Count)
system.loc_mem_ctrl.wrQLenPdf::7                 5604                       # What write queue length does an incoming req see (Count)
system.loc_mem_ctrl.wrQLenPdf::8                 6123                       # What write queue length does an incoming req see (Count)
system.loc_mem_ctrl.wrQLenPdf::9                 6794                       # What write queue length does an incoming req see (Count)
system.loc_mem_ctrl.wrQLenPdf::10                7925                       # What write queue length does an incoming req see (Count)
system.loc_mem_ctrl.wrQLenPdf::11                9078                       # What write queue length does an incoming req see (Count)
system.loc_mem_ctrl.wrQLenPdf::12               10347                       # What write queue length does an incoming req see (Count)
system.loc_mem_ctrl.wrQLenPdf::13               11622                       # What write queue length does an incoming req see (Count)
system.loc_mem_ctrl.wrQLenPdf::14               13123                       # What write queue length does an incoming req see (Count)
system.loc_mem_ctrl.wrQLenPdf::15               14425                       # What write queue length does an incoming req see (Count)
system.loc_mem_ctrl.wrQLenPdf::16               15466                       # What write queue length does an incoming req see (Count)
system.loc_mem_ctrl.wrQLenPdf::17               16271                       # What write queue length does an incoming req see (Count)
system.loc_mem_ctrl.wrQLenPdf::18               16802                       # What write queue length does an incoming req see (Count)
system.loc_mem_ctrl.wrQLenPdf::19               16931                       # What write queue length does an incoming req see (Count)
system.loc_mem_ctrl.wrQLenPdf::20               16951                       # What write queue length does an incoming req see (Count)
system.loc_mem_ctrl.wrQLenPdf::21               17018                       # What write queue length does an incoming req see (Count)
system.loc_mem_ctrl.wrQLenPdf::22               16701                       # What write queue length does an incoming req see (Count)
system.loc_mem_ctrl.wrQLenPdf::23               16293                       # What write queue length does an incoming req see (Count)
system.loc_mem_ctrl.wrQLenPdf::24               16163                       # What write queue length does an incoming req see (Count)
system.loc_mem_ctrl.wrQLenPdf::25               15891                       # What write queue length does an incoming req see (Count)
system.loc_mem_ctrl.wrQLenPdf::26               15431                       # What write queue length does an incoming req see (Count)
system.loc_mem_ctrl.wrQLenPdf::27               15072                       # What write queue length does an incoming req see (Count)
system.loc_mem_ctrl.wrQLenPdf::28               15058                       # What write queue length does an incoming req see (Count)
system.loc_mem_ctrl.wrQLenPdf::29               14980                       # What write queue length does an incoming req see (Count)
system.loc_mem_ctrl.wrQLenPdf::30               14719                       # What write queue length does an incoming req see (Count)
[...]
system.loc_mem_ctrl.dram_2.bwTotal::total  10449879692                       # Total bandwidth to/from this memory ((Byte/Second))
system.loc_mem_ctrl.dram_2.readBursts         1632920                       # Number of DRAM read bursts (Count)
system.loc_mem_ctrl.dram_2.writeBursts        1632880                       # Number of DRAM write bursts (Count)
system.loc_mem_ctrl.dram_2.perBankRdBursts::0       101958                       # Per bank write bursts (Count)
system.loc_mem_ctrl.dram_2.perBankRdBursts::1       102596                       # Per bank write bursts (Count)
system.loc_mem_ctrl.dram_2.perBankRdBursts::2       102290                       # Per bank write bursts (Count)
system.loc_mem_ctrl.dram_2.perBankRdBursts::3       101208                       # Per bank write bursts (Count)
system.loc_mem_ctrl.dram_2.perBankRdBursts::4       101972                       # Per bank write bursts (Count)
system.loc_mem_ctrl.dram_2.perBankRdBursts::5       102056                       # Per bank write bursts (Count)
system.loc_mem_ctrl.dram_2.perBankRdBursts::6       101880                       # Per bank write bursts (Count)
system.loc_mem_ctrl.dram_2.perBankRdBursts::7       101566                       # Per bank write bursts (Count)
system.loc_mem_ctrl.dram_2.perBankRdBursts::8       103150                       # Per bank write bursts (Count)
system.loc_mem_ctrl.dram_2.perBankRdBursts::9       101732                       # Per bank write bursts (Count)
system.loc_mem_ctrl.dram_2.perBankRdBursts::10       102098                       # Per bank write bursts (Count)
system.loc_mem_ctrl.dram_2.perBankRdBursts::11       102236                       # Per bank write bursts (Count)
system.loc_mem_ctrl.dram_2.perBankRdBursts::12       102372                       # Per bank write bursts (Count)
system.loc_mem_ctrl.dram_2.perBankRdBursts::13       101984                       # Per bank write bursts (Count)
system.loc_mem_ctrl.dram_2.perBankRdBursts::14       101580                       # Per bank write bursts (Count)
system.loc_mem_ctrl.dram_2.perBankRdBursts::15       102242                       # Per bank write bursts (Count)
system.loc_mem_ctrl.dram_2.perBankWrBursts::0       101956                       # Per bank write bursts (Count)
system.loc_mem_ctrl.dram_2.perBankWrBursts::1       102586                       # Per bank write bursts (Count)
system.loc_mem_ctrl.dram_2.perBankWrBursts::2       102288                       # Per bank write bursts (Count)
system.loc_mem_ctrl.dram_2.perBankWrBursts::3       101210                       # Per bank write bursts (Count)
system.loc_mem_ctrl.dram_2.perBankWrBursts::4       101972                       # Per bank write bursts (Count)
system.loc_mem_ctrl.dram_2.perBankWrBursts::5       102054                       # Per bank write bursts (Count)
system.loc_mem_ctrl.dram_2.perBankWrBursts::6       101882                       # Per bank write bursts (Count)
system.loc_mem_ctrl.dram_2.perBankWrBursts::7       101566                       # Per bank write bursts (Count)
system.loc_mem_ctrl.dram_2.perBankWrBursts::8       103140                       # Per bank write bursts (Count)
system.loc_mem_ctrl.dram_2.perBankWrBursts::9       101730                       # Per bank write bursts (Count)
system.loc_mem_ctrl.dram_2.perBankWrBursts::10       102098                       # Per bank write bursts (Count)
system.loc_mem_ctrl.dram_2.perBankWrBursts::11       102230                       # Per bank write bursts (Count)
system.loc_mem_ctrl.dram_2.perBankWrBursts::12       102372                       # Per bank write bursts (Count)
system.loc_mem_ctrl.dram_2.perBankWrBursts::13       101984                       # Per bank write bursts (Count)
system.loc_mem_ctrl.dram_2.perBankWrBursts::14       101576                       # Per bank write bursts (Count)
system.loc_mem_ctrl.dram_2.perBankWrBursts::15       102236                       # Per bank write bursts (Count)
system.loc_mem_ctrl.dram_2.totQLat       325181723601                       # Total ticks spent queuing (Tick)
system.loc_mem_ctrl.dram_2.totBusLat       3265840000                       # Total ticks spent in databus transfers (Tick)
system.loc_mem_ctrl.dram_2.totMemAccLat  357840123601                       # Total ticks spent from burst creation until serviced by the DRAM (Tick)
system.loc_mem_ctrl.dram_2.avgQLat          199141.25                       # Average queueing delay per DRAM burst ((Tick/Count))
system.loc_mem_ctrl.dram_2.avgBusLat          2000.00                       # Average bus latency per DRAM burst ((Tick/Count))
system.loc_mem_ctrl.dram_2.avgMemAccLat     219141.25                       # Average memory access latency per DRAM burst ((Tick/Count))
system.loc_mem_ctrl.dram_2.readRowHits         815600                       # Number of row buffer hits during reads (Count)
system.loc_mem_ctrl.dram_2.writeRowHits        815520                       # Number of row buffer hits during writes (Count)
system.loc_mem_ctrl.dram_2.readRowHitRate        49.95                       # Row buffer hit rate for reads (Ratio)
system.loc_mem_ctrl.dram_2.writeRowHitRate        49.94                       # Row buffer hit rate for writes (Ratio)
system.loc_mem_ctrl.dram_2.bytesPerActivate::samples      1634680                       # Bytes accessed per row activation (Byte)
system.loc_mem_ctrl.dram_2.bytesPerActivate::mean    63.930311                       # Bytes accessed per row activation (Byte)
system.loc_mem_ctrl.dram_2.bytesPerActivate::gmean    63.902596                       # Bytes accessed per row activation (Byte)
system.loc_mem_ctrl.dram_2.bytesPerActivate::stdev     1.531496                       # Bytes accessed per row activation (Byte)
system.loc_mem_ctrl.dram_2.bytesPerActivate::32-47         3624      0.22%      0.22% # Bytes accessed per row activation (Byte)
system.loc_mem_ctrl.dram_2.bytesPerActivate::64-79      1631024     99.78%    100.00% # Bytes accessed per row activation (Byte)
system.loc_mem_ctrl.dram_2.bytesPerActivate::128-143           32      0.00%    100.00% # Bytes accessed per row activation (Byte)
system.loc_mem_ctrl.dram_2.bytesPerActivate::total      1634680                       # Bytes accessed per row activation (Byte)
system.loc_mem_ctrl.dram_2.bytesRead         52253440                       # Total bytes read (Byte)
system.loc_mem_ctrl.dram_2.bytesWritten      52252160                       # Total bytes written (Byte)
system.loc_mem_ctrl.dram_2.avgRdBW        5224.920648                       # Average DRAM read bandwidth in MiBytes/s ((Byte/Second))
system.loc_mem_ctrl.dram_2.avgWrBW        5224.792658                       # Average DRAM write bandwidth in MiBytes/s ((Byte/Second))
system.loc_mem_ctrl.dram_2.peakBW            16000.00                       # Theoretical peak bandwidth in MiByte/s ((Byte/Second))
system.loc_mem_ctrl.dram_2.busUtil              65.31                       # Data bus utilization in percentage (Ratio)
system.loc_mem_ctrl.dram_2.busUtilRead          32.66                       # Data bus utilization in percentage for reads (Ratio)
system.loc_mem_ctrl.dram_2.busUtilWrite         32.65                       # Data bus utilization in percentage for writes (Ratio)
system.loc_mem_ctrl.dram_2.pageHitRate          49.95                       # Row buffer hit rate, read and write combined (Ratio)
system.loc_mem_ctrl.dram_2.power_state.pwrStateResidencyTicks::UNDEFINED  10000810256                       # Cumulative time (in ticks) in various power states (Tick)
system.loc_mem_ctrl.dram_2.rank0.actEnergy            0                       # Energy for activate commands per rank (pJ) (Joule)
system.loc_mem_ctrl.dram_2.rank0.preEnergy            0                       # Energy for precharge commands per rank (pJ) (Joule)
system.loc_mem_ctrl.dram_2.rank0.readEnergy            0                       # Energy for read commands per rank (pJ) (Joule)
system.loc_mem_ctrl.dram_2.rank0.writeEnergy            0                       # Energy for write commands per rank (pJ) (Joule)
system.loc_mem_ctrl.dram_2.rank0.refreshEnergy            0                       # Energy for refresh commands per rank (pJ) (Joule)
system.loc_mem_ctrl.dram_2.rank0.actBackEnergy            0                       # Energy for active background per rank (pJ) (Joule)
system.loc_mem_ctrl.dram_2.rank0.preBackEnergy            0                       # Energy for precharge background per rank (pJ) (Joule)
system.loc_mem_ctrl.dram_2.rank0.actPowerDownEnergy            0                       # Energy for active power-down per rank (pJ) (Joule)
system.loc_mem_ctrl.dram_2.rank0.prePowerDownEnergy            0                       # Energy for precharge power-down per rank (pJ) (Joule)
system.loc_mem_ctrl.dram_2.rank0.selfRefreshEnergy            0                       # Energy for self refresh per rank (pJ) (Joule)
system.loc_mem_ctrl.dram_2.rank0.totalEnergy            0                       # Total energy per rank (pJ) (Joule)
system.loc_mem_ctrl.dram_2.rank0.averagePower            0                       # Core power per rank (mW) (Watt)
system.loc_mem_ctrl.dram_2.rank0.totalIdleTime            0                       # Total Idle time Per DRAM Rank (Tick)
system.loc_mem_ctrl.dram_2.rank0.pwrStateTime::IDLE    593168750                       # Time in different power states (Tick)
system.loc_mem_ctrl.dram_2.rank0.pwrStateTime::REF    566060000                       # Time in different power states (Tick)
system.loc_mem_ctrl.dram_2.rank0.pwrStateTime::SREF            0                       # Time in different power states (Tick)
system.loc_mem_ctrl.dram_2.rank0.pwrStateTime::PRE_PDN            0                       # Time in different power states (Tick)
system.loc_mem_ctrl.dram_2.rank0.pwrStateTime::ACT   8841581506                       # Time in different power states (Tick)
system.loc_mem_ctrl.dram_2.rank0.pwrStateTime::ACT_PDN            0                       # Time in different power states (Tick)
system.loc_mem_ctrl.power_state.pwrStateResidencyTicks::UNDEFINED  10000810256                       # Cumulative time (in ticks) in various power states (Tick)
system.mem_ctrl.bytesRead::generator        104669504                       # Number of bytes read from this memory (Byte)
system.mem_ctrl.bytesRead::total            104669504                       # Number of bytes read from this memory (Byte)
system.mem_ctrl.numReads::generator           1635461                       # Number of read requests responded to by this memory (Count)
system.mem_ctrl.numReads::total               1635461                       # Number of read requests responded to by this memory (Count)
system.mem_ctrl.bwRead::generator         10466102378                       # Total read bandwidth from this memory ((Byte/Second))
system.mem_ctrl.bwRead::total             10466102378                       # Total read bandwidth from this memory ((Byte/Second))
system.mem_ctrl.bwTotal::generator        10466102378                       # Total bandwidth to/from this memory ((Byte/Second))
system.mem_ctrl.bwTotal::total            10466102378                       # Total bandwidth to/from this memory ((Byte/Second))
system.mem_ctrl.readReqs                      1635462                       # Number of read requests accepted (Count)
system.mem_ctrl.writeReqs                           0                       # Number of write requests accepted (Count)
system.mem_ctrl.servicedByWrQ                       0                       # Number of controller read bursts serviced by the write queue (Count)
system.mem_ctrl.mergedWrBursts                      0                       # Number of controller write bursts merged with an existing one (Count)
system.mem_ctrl.numRdRetry                    1325822                       # Number of times read queue was full causing retry (Count)
system.mem_ctrl.numWrRetry                          0                       # Number of times write queue was full causing retry (Count)
system.mem_ctrl.readPktSize::0                      0                       # Read request sizes (log2) (Count)
system.mem_ctrl.readPktSize::1                      0                       # Read request sizes (log2) (Count)
system.mem_ctrl.readPktSize::2                      0                       # Read request sizes (log2) (Count)
system.mem_ctrl.readPktSize::3                      0                       # Read request sizes (log2) (Count)
system.mem_ctrl.readPktSize::4                      0                       # Read request sizes (log2) (Count)
system.mem_ctrl.readPktSize::5                      0                       # Read request sizes (log2) (Count)
system.mem_ctrl.readPktSize::6                1635462                       # Read request sizes (log2) (Count)
system.mem_ctrl.writePktSize::0                     0                       # Write request sizes (log2) (Count)
system.mem_ctrl.writePktSize::1                     0                       # Write request sizes (log2) (Count)
system.mem_ctrl.writePktSize::2                     0                       # Write request sizes (log2) (Count)
system.mem_ctrl.writePktSize::3                     0                       # Write request sizes (log2) (Count)
system.mem_ctrl.writePktSize::4                     0                       # Write request sizes (log2) (Count)
system.mem_ctrl.writePktSize::5                     0                       # Write request sizes (log2) (Count)
system.mem_ctrl.writePktSize::6                     0                       # Write request sizes (log2) (Count)
system.mem_ctrl.bytesReadWrQ                        0                       # Total number of bytes read from write queue (Byte)
system.mem_ctrl.bytesReadSys                104669568                       # Total read bytes from the system interface side (Byte)
system.mem_ctrl.bytesWrittenSys                     0                       # Total written bytes from the system interface side (Byte)
system.mem_ctrl.avgRdBWSys               10466108777.25665855                       # Average system read bandwidth in Byte/s ((Byte/Second))
system.mem_ctrl.avgWrBWSys                 0.00000000                       # Average system write bandwidth in Byte/s ((Byte/Second))
system.mem_ctrl.totGap                   18446650243307839488                       # Total gap between requests (Tick)
system.mem_ctrl.avgGap                   11279167747894.99                       # Average gap between requests ((Tick/Count))
system.mem_ctrl.avgORBLen                    252.3350                       # Average ORB length ((Count/Tick))
system.mem_ctrl.avgLocRdQLenStrt               124.39                       # Average local read queue length ((Count/Tick))
system.mem_ctrl.avgLocWrQLenStrt                18.63                       # Average local write queue length ((Count/Tick))
system.mem_ctrl.avgFarRdQLenStrt                22.74                       # Average far read queue length ((Count/Tick))
system.mem_ctrl.avgFarWrQLenStrt                19.24                       # Average far write queue length ((Count/Tick))
system.mem_ctrl.avgLocRdQLenEnq                125.39                       # Average local read queue length when enqueuing ((Count/Tick))
system.mem_ctrl.avgLocWrQLenEnq                 44.95                       # Average local write queue length when enqueuing ((Count/Tick))
system.mem_ctrl.avgFarRdQLenEnq                 58.42                       # Average far read queue length when enqueuing ((Count/Tick))
system.mem_ctrl.avgFarWrQLenEnq                 38.47                       # Average far write queue length when enqueuing ((Count/Tick))
system.mem_ctrl.numWrBacks                    1635461                       # Total number of write backs from DRAM cache to main memory (Unspecified)
system.mem_ctrl.totNumConf                        404                       # Total number of packets conflicted on DRAM cache (Unspecified)
system.mem_ctrl.totNumORBFull                 1324457                       # Total number of packets ORB full (Unspecified)
system.mem_ctrl.totNumCRBFull                       0                       # Total number of packets conflicted yet couldn't enter confBuffer (Unspecified)
system.mem_ctrl.maxNumConf                          2                       # Maximum number of packets conflicted on DRAM cache (Unspecified)
system.mem_ctrl.sentLocRdPort                 1635462                       # stat (Unspecified)
system.mem_ctrl.sentLocWrPort                 1635461                       # stat (Unspecified)
system.mem_ctrl.failedLocRdPort               3185194                       # stat (Unspecified)
system.mem_ctrl.failedLocWrPort               2938274                       # stat (Unspecified)
system.mem_ctrl.recvdRdPort                         0                       # stat (Unspecified)
system.mem_ctrl.sentFarRdPort                 1635461                       # stat (Unspecified)
system.mem_ctrl.sentFarWrPort                 1635334                       # stat (Unspecified)
system.mem_ctrl.failedFarRdPort               1829766                       # stat (Unspecified)
system.mem_ctrl.failedFarWrPort               1022789                       # stat (Unspecified)
system.mem_ctrl.totPktsServiceTime         2427244394                       # stat (Unspecified)
system.mem_ctrl.totPktsORBTime             2426932051                       # stat (Unspecified)
system.mem_ctrl.totTimeFarRdtoSend          425248759                       # stat (Unspecified)
system.mem_ctrl.totTimeFarRdtoRecv          444995320                       # stat (Unspecified)
system.mem_ctrl.totTimeFarWrtoSend                  0                       # stat (Unspecified)
system.mem_ctrl.totTimeInLocRead           1202655706                       # stat (Unspecified)
system.mem_ctrl.totTimeInLocWrite           352263616                       # stat (Unspecified)
system.mem_ctrl.totTimeInFarRead            870773729                       # stat (Unspecified)
system.mem_ctrl.numTotHits                          0                       # stat (Unspecified)
system.mem_ctrl.numTotMisses                  1635462                       # stat (Unspecified)
system.mem_ctrl.numColdMisses                  827806                       # stat (Unspecified)
system.mem_ctrl.numHotMisses                   807656                       # stat (Unspecified)
system.mem_ctrl.numRdMissClean                1635462                       # stat (Unspecified)
system.mem_ctrl.numRdMissDirty                      0                       # stat (Unspecified)
system.mem_ctrl.numRdHit                            0                       # stat (Unspecified)
system.mem_ctrl.numWrMissClean                      0                       # stat (Unspecified)
system.mem_ctrl.numWrMissDirty                      0                       # stat (Unspecified)
system.mem_ctrl.numWrHit                            0                       # stat (Unspecified)
system.mem_ctrl.numRdHitDirty                       0                       # stat (Unspecified)
system.mem_ctrl.numRdHitClean                       0                       # stat (Unspecified)
system.mem_ctrl.numWrHitDirty                       0                       # stat (Unspecified)
system.mem_ctrl.numWrHitClean                       0                       # stat (Unspecified)
system.mem_ctrl.power_state.pwrStateResidencyTicks::UNDEFINED  10000810256                       # Cumulative time (in ticks) in various power states (Tick)
system.workload.inst.arm                            0                       # number of arm instructions executed (Count)
system.workload.inst.quiesce                        0                       # number of quiesce instructions executed (Count)

---------- End Simulation Statistics   ----------
