
---------- Begin Simulation Statistics ----------
simSeconds                                          2                       # Number of seconds simulated (Second)
simTicks                                 2000000000000                       # Number of ticks simulated (Tick)
finalTick                                28478322473250                       # Number of ticks from beginning of simulation (restored from checkpoints and never reset) (Tick)
simFreq                                  1000000000000                       # The number of ticks per simulated second ((Tick/Second))
hostSeconds                                   7113.61                       # Real time elapsed on the host (Second)
hostTickRate                                281151216                       # The number of ticks simulated per host second (ticks/s) ((Tick/Second))
hostMemory                                   10178724                       # Number of bytes of host memory used (Byte)
simInsts                                  36697753232                       # Number of instructions simulated (Count)
simOps                                    37748790644                       # Number of ops (including micro ops) simulated (Count)
hostInstRate                                  5158809                       # Simulator instruction rate (inst/s) ((Count/Second))
hostOpRate                                    5306559                       # Simulator op (including micro ops) rate (op/s) ((Count/Second))
system.atomicCpu0.numCycles                         0                       # Number of cpu cycles simulated (Cycle)
system.atomicCpu0.numWorkItemsStarted               0                       # Number of work items this cpu started (Count)
system.atomicCpu0.numWorkItemsCompleted             0                       # Number of work items this cpu completed (Count)
system.atomicCpu0.exec_context.thread_0.numInsts            0                       # Number of instructions committed (Count)
system.atomicCpu0.exec_context.thread_0.numOps            0                       # Number of ops (including micro ops) committed (Count)
system.atomicCpu0.exec_context.thread_0.numIntAluAccesses            0                       # Number of integer alu accesses (Count)
system.atomicCpu0.exec_context.thread_0.numFpAluAccesses            0                       # Number of float alu accesses (Count)
system.atomicCpu0.exec_context.thread_0.numVecAluAccesses            0                       # Number of vector alu accesses (Count)
system.atomicCpu0.exec_context.thread_0.numCallsReturns            0                       # Number of times a function call or return occured (Count)
system.atomicCpu0.exec_context.thread_0.numCondCtrlInsts            0                       # Number of instructions that are conditional controls (Count)
system.atomicCpu0.exec_context.thread_0.numIntInsts            0                       # Number of integer instructions (Count)
system.atomicCpu0.exec_context.thread_0.numFpInsts            0                       # Number of float instructions (Count)
system.atomicCpu0.exec_context.thread_0.numVecInsts            0                       # Number of vector instructions (Count)
system.atomicCpu0.exec_context.thread_0.numIntRegReads            0                       # Number of times the integer registers were read (Count)
system.atomicCpu0.exec_context.thread_0.numIntRegWrites            0                       # Number of times the integer registers were written (Count)
system.atomicCpu0.exec_context.thread_0.numFpRegReads            0                       # Number of times the floating registers were read (Count)
system.atomicCpu0.exec_context.thread_0.numFpRegWrites            0                       # Number of times the floating registers were written (Count)
system.atomicCpu0.exec_context.thread_0.numVecRegReads            0                       # Number of times the vector registers were read (Count)
system.atomicCpu0.exec_context.thread_0.numVecRegWrites            0                       # Number of times the vector registers were written (Count)
system.atomicCpu0.exec_context.thread_0.numVecPredRegReads            0                       # Number of times the predicate registers were read (Count)
system.atomicCpu0.exec_context.thread_0.numVecPredRegWrites            0                       # Number of times the predicate registers were written (Count)
system.atomicCpu0.exec_context.thread_0.numMiscRegReads            0                       # Number of times the Misc registers were read (Count)
system.atomicCpu0.exec_context.thread_0.numMiscRegWrites            0                       # Number of times the Misc registers were written (Count)
system.atomicCpu0.exec_context.thread_0.numMemRefs            0                       # Number of memory refs (Count)
system.atomicCpu0.exec_context.thread_0.numLoadInsts            0                       # Number of load instructions (Count)
system.atomicCpu0.exec_context.thread_0.numStoreInsts            0                       # Number of store instructions (Count)
system.atomicCpu0.exec_context.thread_0.numIdleCycles            0                       # Number of idle cycles (Cycle)
system.atomicCpu0.exec_context.thread_0.numBusyCycles            0                       # Number of busy cycles (Cycle)
system.atomicCpu0.exec_context.thread_0.notIdleFraction            0                       # Percentage of non-idle cycles (Ratio)
system.atomicCpu0.exec_context.thread_0.idleFraction            1                       # Percentage of idle cycles (Ratio)
system.atomicCpu0.exec_context.thread_0.statExecutedInstType::No_OpClass            0                       # Class of executed instruction. (Count)
system.atomicCpu0.exec_context.thread_0.statExecutedInstType::IntAlu            0                       # Class of executed instruction. (Count)
system.atomicCpu0.exec_context.thread_0.statExecutedInstType::IntMult            0                       # Class of executed instruction. (Count)
system.atomicCpu0.exec_context.thread_0.statExecutedInstType::IntDiv            0                       # Class of executed instruction. (Count)
system.atomicCpu0.exec_context.thread_0.statExecutedInstType::FloatAdd            0                       # Class of executed instruction. (Count)
system.atomicCpu0.exec_context.thread_0.statExecutedInstType::FloatCmp            0                       # Class of executed instruction. (Count)
system.atomicCpu0.exec_context.thread_0.statExecutedInstType::FloatCvt            0                       # Class of executed instruction. (Count)
system.atomicCpu0.exec_context.thread_0.statExecutedInstType::FloatMult            0                       # Class of executed instruction. (Count)
system.atomicCpu0.exec_context.thread_0.statExecutedInstType::FloatMultAcc            0                       # Class of executed instruction. (Count)
system.atomicCpu0.exec_context.thread_0.statExecutedInstType::FloatDiv            0                       # Class of executed instruction. (Count)
system.atomicCpu0.exec_context.thread_0.statExecutedInstType::FloatMisc            0                       # Class of executed instruction. (Count)
system.atomicCpu0.exec_context.thread_0.statExecutedInstType::FloatSqrt            0                       # Class of executed instruction. (Count)
system.atomicCpu0.exec_context.thread_0.statExecutedInstType::SimdAdd            0                       # Class of executed instruction. (Count)
system.atomicCpu0.exec_context.thread_0.statExecutedInstType::SimdAddAcc            0                       # Class of executed instruction. (Count)
system.atomicCpu0.exec_context.thread_0.statExecutedInstType::SimdAlu            0                       # Class of executed instruction. (Count)
system.atomicCpu0.exec_context.thread_0.statExecutedInstType::SimdCmp            0                       # Class of executed instruction. (Count)
system.atomicCpu0.exec_context.thread_0.statExecutedInstType::SimdCvt            0                       # Class of executed instruction. (Count)
system.atomicCpu0.exec_context.thread_0.statExecutedInstType::SimdMisc            0                       # Class of executed instruction. (Count)
system.atomicCpu0.exec_context.thread_0.statExecutedInstType::SimdMult            0                       # Class of executed instruction. (Count)
system.atomicCpu0.exec_context.thread_0.statExecutedInstType::SimdMultAcc            0                       # Class of executed instruction. (Count)
system.atomicCpu0.exec_context.thread_0.statExecutedInstType::SimdShift            0                       # Class of executed instruction. (Count)
system.atomicCpu0.exec_context.thread_0.statExecutedInstType::SimdShiftAcc            0                       # Class of executed instruction. (Count)
system.atomicCpu0.exec_context.thread_0.statExecutedInstType::SimdDiv            0                       # Class of executed instruction. (Count)
system.atomicCpu0.exec_context.thread_0.statExecutedInstType::SimdSqrt            0                       # Class of executed instruction. (Count)
system.atomicCpu0.exec_context.thread_0.statExecutedInstType::SimdFloatAdd            0                       # Class of executed instruction. (Count)
system.atomicCpu0.exec_context.thread_0.statExecutedInstType::SimdFloatAlu            0                       # Class of executed instruction. (Count)
system.atomicCpu0.exec_context.thread_0.statExecutedInstType::SimdFloatCmp            0                       # Class of executed instruction. (Count)
system.atomicCpu0.exec_context.thread_0.statExecutedInstType::SimdFloatCvt            0                       # Class of executed instruction. (Count)
system.atomicCpu0.exec_context.thread_0.statExecutedInstType::SimdFloatDiv            0                       # Class of executed instruction. (Count)
system.atomicCpu0.exec_context.thread_0.statExecutedInstType::SimdFloatMisc            0                       # Class of executed instruction. (Count)
system.atomicCpu0.exec_context.thread_0.statExecutedInstType::SimdFloatMult            0                       # Class of executed instruction. (Count)
system.atomicCpu0.exec_context.thread_0.statExecutedInstType::SimdFloatMultAcc            0                       # Class of executed instruction. (Count)
system.atomicCpu0.exec_context.thread_0.statExecutedInstType::SimdFloatSqrt            0                       # Class of executed instruction. (Count)
system.atomicCpu0.exec_context.thread_0.statExecutedInstType::SimdReduceAdd            0                       # Class of executed instruction. (Count)
system.atomicCpu0.exec_context.thread_0.statExecutedInstType::SimdReduceAlu            0                       # Class of executed instruction. (Count)
system.atomicCpu0.exec_context.thread_0.statExecutedInstType::SimdReduceCmp            0                       # Class of executed instruction. (Count)
system.atomicCpu0.exec_context.thread_0.statExecutedInstType::SimdFloatReduceAdd            0                       # Class of executed instruction. (Count)
system.atomicCpu0.exec_context.thread_0.statExecutedInstType::SimdFloatReduceCmp            0                       # Class of executed instruction. (Count)
system.atomicCpu0.exec_context.thread_0.statExecutedInstType::SimdAes            0                       # Class of executed instruction. (Count)
system.atomicCpu0.exec_context.thread_0.statExecutedInstType::SimdAesMix            0                       # Class of executed instruction. (Count)
system.atomicCpu0.exec_context.thread_0.statExecutedInstType::SimdSha1Hash            0                       # Class of executed instruction. (Count)
system.atomicCpu0.exec_context.thread_0.statExecutedInstType::SimdSha1Hash2            0                       # Class of executed instruction. (Count)
system.atomicCpu0.exec_context.thread_0.statExecutedInstType::SimdSha256Hash            0                       # Class of executed instruction. (Count)
system.atomicCpu0.exec_context.thread_0.statExecutedInstType::SimdSha256Hash2            0                       # Class of executed instruction. (Count)
system.atomicCpu0.exec_context.thread_0.statExecutedInstType::SimdShaSigma2            0                       # Class of executed instruction. (Count)
system.atomicCpu0.exec_context.thread_0.statExecutedInstType::SimdShaSigma3            0                       # Class of executed instruction. (Count)
system.atomicCpu0.exec_context.thread_0.statExecutedInstType::SimdPredAlu            0                       # Class of executed instruction. (Count)
system.atomicCpu0.exec_context.thread_0.statExecutedInstType::MemRead            0                       # Class of executed instruction. (Count)
system.atomicCpu0.exec_context.thread_0.statExecutedInstType::MemWrite            0                       # Class of executed instruction. (Count)
system.atomicCpu0.exec_context.thread_0.statExecutedInstType::FloatMemRead            0                       # Class of executed instruction. (Count)
system.atomicCpu0.exec_context.thread_0.statExecutedInstType::FloatMemWrite            0                       # Class of executed instruction. (Count)
system.atomicCpu0.exec_context.thread_0.statExecutedInstType::IprAccess            0                       # Class of executed instruction. (Count)
system.atomicCpu0.exec_context.thread_0.statExecutedInstType::InstPrefetch            0                       # Class of executed instruction. (Count)
system.atomicCpu0.exec_context.thread_0.statExecutedInstType::total            0                       # Class of executed instruction. (Count)
system.atomicCpu0.mmu.dtb.rdAccesses                0                       # TLB accesses on read requests (Count)
system.atomicCpu0.mmu.dtb.wrAccesses                0                       # TLB accesses on write requests (Count)
system.atomicCpu0.mmu.dtb.rdMisses                  0                       # TLB misses on read requests (Count)
system.atomicCpu0.mmu.dtb.wrMisses                  0                       # TLB misses on write requests (Count)
system.atomicCpu0.mmu.dtb.walker.power_state.pwrStateResidencyTicks::UNDEFINED 28478322473250                       # Cumulative time (in ticks) in various power states (Tick)
system.atomicCpu0.mmu.itb.rdAccesses                0                       # TLB accesses on read requests (Count)
system.atomicCpu0.mmu.itb.wrAccesses                0                       # TLB accesses on write requests (Count)
system.atomicCpu0.mmu.itb.rdMisses                  0                       # TLB misses on read requests (Count)
system.atomicCpu0.mmu.itb.wrMisses                  0                       # TLB misses on write requests (Count)
system.atomicCpu0.mmu.itb.walker.power_state.pwrStateResidencyTicks::UNDEFINED 28478322473250                       # Cumulative time (in ticks) in various power states (Tick)
system.atomicCpu0.power_state.pwrStateResidencyTicks::OFF 28478322473250                       # Cumulative time (in ticks) in various power states (Tick)
system.atomicCpu0.thread_0.numInsts                 0                       # Number of Instructions committed (Count)
system.atomicCpu0.thread_0.numOps                   0                       # Number of Ops committed (Count)
system.atomicCpu0.thread_0.numMemRefs               0                       # Number of Memory References (Count)
system.atomicCpu1.numCycles                         0                       # Number of cpu cycles simulated (Cycle)
system.atomicCpu1.numWorkItemsStarted               0                       # Number of work items this cpu started (Count)
system.atomicCpu1.numWorkItemsCompleted             0                       # Number of work items this cpu completed (Count)
system.atomicCpu1.exec_context.thread_0.numInsts            0                       # Number of instructions committed (Count)
system.atomicCpu1.exec_context.thread_0.numOps            0                       # Number of ops (including micro ops) committed (Count)
system.atomicCpu1.exec_context.thread_0.numIntAluAccesses            0                       # Number of integer alu accesses (Count)
system.atomicCpu1.exec_context.thread_0.numFpAluAccesses            0                       # Number of float alu accesses (Count)
system.atomicCpu1.exec_context.thread_0.numVecAluAccesses            0                       # Number of vector alu accesses (Count)
system.atomicCpu1.exec_context.thread_0.numCallsReturns            0                       # Number of times a function call or return occured (Count)
system.atomicCpu1.exec_context.thread_0.numCondCtrlInsts            0                       # Number of instructions that are conditional controls (Count)
system.atomicCpu1.exec_context.thread_0.numIntInsts            0                       # Number of integer instructions (Count)
system.atomicCpu1.exec_context.thread_0.numFpInsts            0                       # Number of float instructions (Count)
system.atomicCpu1.exec_context.thread_0.numVecInsts            0                       # Number of vector instructions (Count)
system.atomicCpu1.exec_context.thread_0.numIntRegReads            0                       # Number of times the integer registers were read (Count)
system.atomicCpu1.exec_context.thread_0.numIntRegWrites            0                       # Number of times the integer registers were written (Count)
system.atomicCpu1.exec_context.thread_0.numFpRegReads            0                       # Number of times the floating registers were read (Count)
system.atomicCpu1.exec_context.thread_0.numFpRegWrites            0                       # Number of times the floating registers were written (Count)
system.atomicCpu1.exec_context.thread_0.numVecRegReads            0                       # Number of times the vector registers were read (Count)
system.atomicCpu1.exec_context.thread_0.numVecRegWrites            0                       # Number of times the vector registers were written (Count)
system.atomicCpu1.exec_context.thread_0.numVecPredRegReads            0                       # Number of times the predicate registers were read (Count)
system.atomicCpu1.exec_context.thread_0.numVecPredRegWrites            0                       # Number of times the predicate registers were written (Count)
system.atomicCpu1.exec_context.thread_0.numMiscRegReads            0                       # Number of times the Misc registers were read (Count)
system.atomicCpu1.exec_context.thread_0.numMiscRegWrites            0                       # Number of times the Misc registers were written (Count)
system.atomicCpu1.exec_context.thread_0.numMemRefs            0                       # Number of memory refs (Count)
system.atomicCpu1.exec_context.thread_0.numLoadInsts            0                       # Number of load instructions (Count)
system.atomicCpu1.exec_context.thread_0.numStoreInsts            0                       # Number of store instructions (Count)
system.atomicCpu1.exec_context.thread_0.numIdleCycles            0                       # Number of idle cycles (Cycle)
system.atomicCpu1.exec_context.thread_0.numBusyCycles            0                       # Number of busy cycles (Cycle)
system.atomicCpu1.exec_context.thread_0.notIdleFraction            0                       # Percentage of non-idle cycles (Ratio)
system.atomicCpu1.exec_context.thread_0.idleFraction            1                       # Percentage of idle cycles (Ratio)
system.atomicCpu1.exec_context.thread_0.statExecutedInstType::No_OpClass            0                       # Class of executed instruction. (Count)
system.atomicCpu1.exec_context.thread_0.statExecutedInstType::IntAlu            0                       # Class of executed instruction. (Count)
system.atomicCpu1.exec_context.thread_0.statExecutedInstType::IntMult            0                       # Class of executed instruction. (Count)
system.atomicCpu1.exec_context.thread_0.statExecutedInstType::IntDiv            0                       # Class of executed instruction. (Count)
system.atomicCpu1.exec_context.thread_0.statExecutedInstType::FloatAdd            0                       # Class of executed instruction. (Count)
system.atomicCpu1.exec_context.thread_0.statExecutedInstType::FloatCmp            0                       # Class of executed instruction. (Count)
system.atomicCpu1.exec_context.thread_0.statExecutedInstType::FloatCvt            0                       # Class of executed instruction. (Count)
system.atomicCpu1.exec_context.thread_0.statExecutedInstType::FloatMult            0                       # Class of executed instruction. (Count)
system.atomicCpu1.exec_context.thread_0.statExecutedInstType::FloatMultAcc            0                       # Class of executed instruction. (Count)
system.atomicCpu1.exec_context.thread_0.statExecutedInstType::FloatDiv            0                       # Class of executed instruction. (Count)
system.atomicCpu1.exec_context.thread_0.statExecutedInstType::FloatMisc            0                       # Class of executed instruction. (Count)
system.atomicCpu1.exec_context.thread_0.statExecutedInstType::FloatSqrt            0                       # Class of executed instruction. (Count)
system.atomicCpu1.exec_context.thread_0.statExecutedInstType::SimdAdd            0                       # Class of executed instruction. (Count)
system.atomicCpu1.exec_context.thread_0.statExecutedInstType::SimdAddAcc            0                       # Class of executed instruction. (Count)
system.atomicCpu1.exec_context.thread_0.statExecutedInstType::SimdAlu            0                       # Class of executed instruction. (Count)
system.atomicCpu1.exec_context.thread_0.statExecutedInstType::SimdCmp            0                       # Class of executed instruction. (Count)
system.atomicCpu1.exec_context.thread_0.statExecutedInstType::SimdCvt            0                       # Class of executed instruction. (Count)
system.atomicCpu1.exec_context.thread_0.statExecutedInstType::SimdMisc            0                       # Class of executed instruction. (Count)
system.atomicCpu1.exec_context.thread_0.statExecutedInstType::SimdMult            0                       # Class of executed instruction. (Count)
system.atomicCpu1.exec_context.thread_0.statExecutedInstType::SimdMultAcc            0                       # Class of executed instruction. (Count)
system.atomicCpu1.exec_context.thread_0.statExecutedInstType::SimdShift            0                       # Class of executed instruction. (Count)
system.atomicCpu1.exec_context.thread_0.statExecutedInstType::SimdShiftAcc            0                       # Class of executed instruction. (Count)
system.atomicCpu1.exec_context.thread_0.statExecutedInstType::SimdDiv            0                       # Class of executed instruction. (Count)
system.atomicCpu1.exec_context.thread_0.statExecutedInstType::SimdSqrt            0                       # Class of executed instruction. (Count)
system.atomicCpu1.exec_context.thread_0.statExecutedInstType::SimdFloatAdd            0                       # Class of executed instruction. (Count)
system.atomicCpu1.exec_context.thread_0.statExecutedInstType::SimdFloatAlu            0                       # Class of executed instruction. (Count)
system.atomicCpu1.exec_context.thread_0.statExecutedInstType::SimdFloatCmp            0                       # Class of executed instruction. (Count)
system.atomicCpu1.exec_context.thread_0.statExecutedInstType::SimdFloatCvt            0                       # Class of executed instruction. (Count)
system.atomicCpu1.exec_context.thread_0.statExecutedInstType::SimdFloatDiv            0                       # Class of executed instruction. (Count)
system.atomicCpu1.exec_context.thread_0.statExecutedInstType::SimdFloatMisc            0                       # Class of executed instruction. (Count)
system.atomicCpu1.exec_context.thread_0.statExecutedInstType::SimdFloatMult            0                       # Class of executed instruction. (Count)
system.atomicCpu1.exec_context.thread_0.statExecutedInstType::SimdFloatMultAcc            0                       # Class of executed instruction. (Count)
system.atomicCpu1.exec_context.thread_0.statExecutedInstType::SimdFloatSqrt            0                       # Class of executed instruction. (Count)
system.atomicCpu1.exec_context.thread_0.statExecutedInstType::SimdReduceAdd            0                       # Class of executed instruction. (Count)
system.atomicCpu1.exec_context.thread_0.statExecutedInstType::SimdReduceAlu            0                       # Class of executed instruction. (Count)
system.atomicCpu1.exec_context.thread_0.statExecutedInstType::SimdReduceCmp            0                       # Class of executed instruction. (Count)
system.atomicCpu1.exec_context.thread_0.statExecutedInstType::SimdFloatReduceAdd            0                       # Class of executed instruction. (Count)
system.atomicCpu1.exec_context.thread_0.statExecutedInstType::SimdFloatReduceCmp            0                       # Class of executed instruction. (Count)
system.atomicCpu1.exec_context.thread_0.statExecutedInstType::SimdAes            0                       # Class of executed instruction. (Count)
system.atomicCpu1.exec_context.thread_0.statExecutedInstType::SimdAesMix            0                       # Class of executed instruction. (Count)
system.atomicCpu1.exec_context.thread_0.statExecutedInstType::SimdSha1Hash            0                       # Class of executed instruction. (Count)
system.atomicCpu1.exec_context.thread_0.statExecutedInstType::SimdSha1Hash2            0                       # Class of executed instruction. (Count)
system.atomicCpu1.exec_context.thread_0.statExecutedInstType::SimdSha256Hash            0                       # Class of executed instruction. (Count)
system.atomicCpu1.exec_context.thread_0.statExecutedInstType::SimdSha256Hash2            0                       # Class of executed instruction. (Count)
system.atomicCpu1.exec_context.thread_0.statExecutedInstType::SimdShaSigma2            0                       # Class of executed instruction. (Count)
system.atomicCpu1.exec_context.thread_0.statExecutedInstType::SimdShaSigma3            0                       # Class of executed instruction. (Count)
system.atomicCpu1.exec_context.thread_0.statExecutedInstType::SimdPredAlu            0                       # Class of executed instruction. (Count)
system.atomicCpu1.exec_context.thread_0.statExecutedInstType::MemRead            0                       # Class of executed instruction. (Count)
system.atomicCpu1.exec_context.thread_0.statExecutedInstType::MemWrite            0                       # Class of executed instruction. (Count)
system.atomicCpu1.exec_context.thread_0.statExecutedInstType::FloatMemRead            0                       # Class of executed instruction. (Count)
system.atomicCpu1.exec_context.thread_0.statExecutedInstType::FloatMemWrite            0                       # Class of executed instruction. (Count)
system.atomicCpu1.exec_context.thread_0.statExecutedInstType::IprAccess            0                       # Class of executed instruction. (Count)
system.atomicCpu1.exec_context.thread_0.statExecutedInstType::InstPrefetch            0                       # Class of executed instruction. (Count)
system.atomicCpu1.exec_context.thread_0.statExecutedInstType::total            0                       # Class of executed instruction. (Count)
system.atomicCpu1.mmu.dtb.rdAccesses                0                       # TLB accesses on read requests (Count)
system.atomicCpu1.mmu.dtb.wrAccesses                0                       # TLB accesses on write requests (Count)
system.atomicCpu1.mmu.dtb.rdMisses                  0                       # TLB misses on read requests (Count)
system.atomicCpu1.mmu.dtb.wrMisses                  0                       # TLB misses on write requests (Count)
system.atomicCpu1.mmu.dtb.walker.power_state.pwrStateResidencyTicks::UNDEFINED 28478322473250                       # Cumulative time (in ticks) in various power states (Tick)
system.atomicCpu1.mmu.itb.rdAccesses                0                       # TLB accesses on read requests (Count)
system.atomicCpu1.mmu.itb.wrAccesses                0                       # TLB accesses on write requests (Count)
system.atomicCpu1.mmu.itb.rdMisses                  0                       # TLB misses on read requests (Count)
system.atomicCpu1.mmu.itb.wrMisses                  0                       # TLB misses on write requests (Count)
system.atomicCpu1.mmu.itb.walker.power_state.pwrStateResidencyTicks::UNDEFINED 28478322473250                       # Cumulative time (in ticks) in various power states (Tick)
system.atomicCpu1.power_state.pwrStateResidencyTicks::OFF 28478322473250                       # Cumulative time (in ticks) in various power states (Tick)
system.atomicCpu1.thread_0.numInsts                 0                       # Number of Instructions committed (Count)
system.atomicCpu1.thread_0.numOps                   0                       # Number of Ops committed (Count)
system.atomicCpu1.thread_0.numMemRefs               0                       # Number of Memory References (Count)
system.caches.delayHistogram::bucket_size           64                       # delay histogram for all message (Unspecified)
system.caches.delayHistogram::max_bucket          639                       # delay histogram for all message (Unspecified)
system.caches.delayHistogram::samples       112896444                       # delay histogram for all message (Unspecified)
system.caches.delayHistogram::mean           0.281532                       # delay histogram for all message (Unspecified)
system.caches.delayHistogram::stdev          1.478866                       # delay histogram for all message (Unspecified)
system.caches.delayHistogram             |   112896374    100.00%    100.00% |          68      0.00%    100.00% |           0      0.00%    100.00% |           1      0.00%    100.00% |           0      0.00%    100.00% |           0      0.00%    100.00% |           0      0.00%    100.00% |           0      0.00%    100.00% |           0      0.00%    100.00% |           1      0.00%    100.00% # delay histogram for all message (Unspecified)
system.caches.delayHistogram::total         112896444                       # delay histogram for all message (Unspecified)
system.caches.m_outstandReqHistSeqr::bucket_size            1                       (Unspecified)
system.caches.m_outstandReqHistSeqr::max_bucket            9                       (Unspecified)
system.caches.m_outstandReqHistSeqr::samples   3111933006                       (Unspecified)
system.caches.m_outstandReqHistSeqr::mean            1                       (Unspecified)
system.caches.m_outstandReqHistSeqr::gmean            1                       (Unspecified)
system.caches.m_outstandReqHistSeqr      |           0      0.00%      0.00% |  3111933006    100.00%    100.00% |           0      0.00%    100.00% |           0      0.00%    100.00% |           0      0.00%    100.00% |           0      0.00%    100.00% |           0      0.00%    100.00% |           0      0.00%    100.00% |           0      0.00%    100.00% |           0      0.00%    100.00% (Unspecified)
system.caches.m_outstandReqHistSeqr::total   3111933006                       (Unspecified)
system.caches.m_latencyHistSeqr::bucket_size          512                       (Unspecified)
system.caches.m_latencyHistSeqr::max_bucket         5119                       (Unspecified)
system.caches.m_latencyHistSeqr::samples   3111933004                       (Unspecified)
system.caches.m_latencyHistSeqr::mean        4.140181                       (Unspecified)
system.caches.m_latencyHistSeqr::gmean       1.033461                       (Unspecified)
system.caches.m_latencyHistSeqr::stdev      47.843367                       (Unspecified)
system.caches.m_latencyHistSeqr          |  3104565400     99.76%     99.76% |     6763680      0.22%     99.98% |      135552      0.00%     99.98% |      393609      0.01%    100.00% |       73489      0.00%    100.00% |        1259      0.00%    100.00% |          15      0.00%    100.00% |           0      0.00%    100.00% |           0      0.00%    100.00% |           0      0.00%    100.00% (Unspecified)
system.caches.m_latencyHistSeqr::total     3111933004                       (Unspecified)
system.caches.m_hitLatencyHistSeqr::bucket_size            1                       (Unspecified)
system.caches.m_hitLatencyHistSeqr::max_bucket            9                       (Unspecified)
system.caches.m_hitLatencyHistSeqr::samples   3095653086                       (Unspecified)
system.caches.m_hitLatencyHistSeqr::mean            1                       (Unspecified)
system.caches.m_hitLatencyHistSeqr::gmean            1                       (Unspecified)
system.caches.m_hitLatencyHistSeqr       |           0      0.00%      0.00% |  3095653086    100.00%    100.00% |           0      0.00%    100.00% |           0      0.00%    100.00% |           0      0.00%    100.00% |           0      0.00%    100.00% |           0      0.00%    100.00% |           0      0.00%    100.00% |           0      0.00%    100.00% |           0      0.00%    100.00% (Unspecified)
system.caches.m_hitLatencyHistSeqr::total   3095653086                       (Unspecified)
system.caches.m_missLatencyHistSeqr::bucket_size          512                       (Unspecified)
system.caches.m_missLatencyHistSeqr::max_bucket         5119                       (Unspecified)
system.caches.m_missLatencyHistSeqr::samples     16279918                       (Unspecified)
system.caches.m_missLatencyHistSeqr::mean   601.250812                       (Unspecified)
system.caches.m_missLatencyHistSeqr::gmean   539.906179                       (Unspecified)
system.caches.m_missLatencyHistSeqr::stdev   281.296328                       (Unspecified)
system.caches.m_missLatencyHistSeqr      |     8912314     54.74%     54.74% |     6763680     41.55%     96.29% |      135552      0.83%     97.12% |      393609      2.42%     99.54% |       73489      0.45%     99.99% |        1259      0.01%    100.00% |          15      0.00%    100.00% |           0      0.00%    100.00% |           0      0.00%    100.00% |           0      0.00%    100.00% (Unspecified)
system.caches.m_missLatencyHistSeqr::total     16279918                       (Unspecified)
system.caches.delayVCHist.vnet_0::bucket_size           64                       # delay histogram for vnet_0 (Unspecified)
system.caches.delayVCHist.vnet_0::max_bucket          639                       # delay histogram for vnet_0 (Unspecified)
system.caches.delayVCHist.vnet_0::samples     48451162                       # delay histogram for vnet_0 (Unspecified)
system.caches.delayVCHist.vnet_0::mean       0.655670                       # delay histogram for vnet_0 (Unspecified)
system.caches.delayVCHist.vnet_0::stdev      2.202044                       # delay histogram for vnet_0 (Unspecified)
system.caches.delayVCHist.vnet_0         |    48451092    100.00%    100.00% |          68      0.00%    100.00% |           0      0.00%    100.00% |           1      0.00%    100.00% |           0      0.00%    100.00% |           0      0.00%    100.00% |           0      0.00%    100.00% |           0      0.00%    100.00% |           0      0.00%    100.00% |           1      0.00%    100.00% # delay histogram for vnet_0 (Unspecified)
system.caches.delayVCHist.vnet_0::total      48451162                       # delay histogram for vnet_0 (Unspecified)
system.caches.delayVCHist.vnet_1::bucket_size            1                       # delay histogram for vnet_1 (Unspecified)
system.caches.delayVCHist.vnet_1::max_bucket            9                       # delay histogram for vnet_1 (Unspecified)
system.caches.delayVCHist.vnet_1::samples     64319548                       # delay histogram for vnet_1 (Unspecified)
system.caches.delayVCHist.vnet_1::mean       0.000248                       # delay histogram for vnet_1 (Unspecified)
system.caches.delayVCHist.vnet_1::stdev      0.037141                       # delay histogram for vnet_1 (Unspecified)
system.caches.delayVCHist.vnet_1         |    64316078     99.99%     99.99% |           0      0.00%     99.99% |        1001      0.00%    100.00% |           0      0.00%    100.00% |         989      0.00%    100.00% |           0      0.00%    100.00% |         922      0.00%    100.00% |           0      0.00%    100.00% |         558      0.00%    100.00% |           0      0.00%    100.00% # delay histogram for vnet_1 (Unspecified)
system.caches.delayVCHist.vnet_1::total      64319548                       # delay histogram for vnet_1 (Unspecified)
system.caches.delayVCHist.vnet_2::bucket_size            1                       # delay histogram for vnet_2 (Unspecified)
system.caches.delayVCHist.vnet_2::max_bucket            9                       # delay histogram for vnet_2 (Unspecified)
system.caches.delayVCHist.vnet_2::samples       125734                       # delay histogram for vnet_2 (Unspecified)
system.caches.delayVCHist.vnet_2::mean       0.000048                       # delay histogram for vnet_2 (Unspecified)
system.caches.delayVCHist.vnet_2::stdev      0.009769                       # delay histogram for vnet_2 (Unspecified)
system.caches.delayVCHist.vnet_2         |      125731    100.00%    100.00% |           0      0.00%    100.00% |           3      0.00%    100.00% |           0      0.00%    100.00% |           0      0.00%    100.00% |           0      0.00%    100.00% |           0      0.00%    100.00% |           0      0.00%    100.00% |           0      0.00%    100.00% |           0      0.00%    100.00% # delay histogram for vnet_2 (Unspecified)
system.caches.delayVCHist.vnet_2::total        125734                       # delay histogram for vnet_2 (Unspecified)
system.caches.L1Cache_Controller.Load    |   198791074     50.04%     50.04% |   198438697     49.96%    100.00% (Unspecified)
system.caches.L1Cache_Controller.Load::total    397229771                       (Unspecified)
system.caches.L1Cache_Controller.Ifetch  |  1163532149     50.03%     50.03% |  1162335141     49.97%    100.00% (Unspecified)
system.caches.L1Cache_Controller.Ifetch::total   2325867290                       (Unspecified)
system.caches.L1Cache_Controller.Store   |   194484772     50.02%     50.02% |   194351173     49.98%    100.00% (Unspecified)
system.caches.L1Cache_Controller.Store::total    388835945                       (Unspecified)
system.caches.L1Cache_Controller.Inv     |       48797     45.90%     45.90% |       57503     54.10%    100.00% (Unspecified)
system.caches.L1Cache_Controller.Inv::total       106300                       (Unspecified)
system.caches.L1Cache_Controller.L1_Replacement |     8088945     50.07%     50.07% |     8064975     49.93%    100.00% (Unspecified)
system.caches.L1Cache_Controller.L1_Replacement::total     16153920                       (Unspecified)
system.caches.L1Cache_Controller.Fwd_GETX |          13     12.75%     12.75% |          89     87.25%    100.00% (Unspecified)
system.caches.L1Cache_Controller.Fwd_GETX::total          102                       (Unspecified)
system.caches.L1Cache_Controller.Fwd_GETS |       15974     82.63%     82.63% |        3358     17.37%    100.00% (Unspecified)
system.caches.L1Cache_Controller.Fwd_GETS::total        19332                       (Unspecified)
system.caches.L1Cache_Controller.Data    |         403    100.00%    100.00% |           0      0.00%    100.00% (Unspecified)
system.caches.L1Cache_Controller.Data::total          403                       (Unspecified)
system.caches.L1Cache_Controller.Data_Exclusive |     6058615     49.96%     49.96% |     6068800     50.04%    100.00% (Unspecified)
system.caches.L1Cache_Controller.Data_Exclusive::total     12127415                       (Unspecified)
system.caches.L1Cache_Controller.DataS_fromL1 |        3358     17.37%     17.37% |       15974     82.63%    100.00% (Unspecified)
system.caches.L1Cache_Controller.DataS_fromL1::total        19332                       (Unspecified)
system.caches.L1Cache_Controller.Data_all_Acks |     2078170     50.46%     50.46% |     2040354     49.54%    100.00% (Unspecified)
system.caches.L1Cache_Controller.Data_all_Acks::total      4118524                       (Unspecified)
system.caches.L1Cache_Controller.Ack     |       14156     99.38%     99.38% |          88      0.62%    100.00% (Unspecified)
system.caches.L1Cache_Controller.Ack::total        14244                       (Unspecified)
system.caches.L1Cache_Controller.Ack_all |       14559     99.40%     99.40% |          88      0.60%    100.00% (Unspecified)
system.caches.L1Cache_Controller.Ack_all::total        14647                       (Unspecified)
system.caches.L1Cache_Controller.WB_Ack  |     8017570     49.98%     49.98% |     8023666     50.02%    100.00% (Unspecified)
system.caches.L1Cache_Controller.WB_Ack::total     16041236                       (Unspecified)
system.caches.L1Cache_Controller.NP.Load |     6062505     49.97%     49.97% |     6070788     50.03%    100.00% (Unspecified)
system.caches.L1Cache_Controller.NP.Load::total     12133293                       (Unspecified)
system.caches.L1Cache_Controller.NP.Ifetch |       55346     67.93%     67.93% |       26128     32.07%    100.00% (Unspecified)
system.caches.L1Cache_Controller.NP.Ifetch::total        81474                       (Unspecified)
system.caches.L1Cache_Controller.NP.Store |     1979791     50.04%     50.04% |     1976729     49.96%    100.00% (Unspecified)
system.caches.L1Cache_Controller.NP.Store::total      3956520                       (Unspecified)
system.caches.L1Cache_Controller.NP.Inv  |        1240     48.78%     48.78% |        1302     51.22%    100.00% (Unspecified)
system.caches.L1Cache_Controller.NP.Inv::total         2542                       (Unspecified)
system.caches.L1Cache_Controller.I.Load  |       13917     34.05%     34.05% |       26956     65.95%    100.00% (Unspecified)
system.caches.L1Cache_Controller.I.Load::total        40873                       (Unspecified)
system.caches.L1Cache_Controller.I.Ifetch |       22320     54.41%     54.41% |       18699     45.59%    100.00% (Unspecified)
system.caches.L1Cache_Controller.I.Ifetch::total        41019                       (Unspecified)
system.caches.L1Cache_Controller.I.Store |        6668     53.36%     53.36% |        5828     46.64%    100.00% (Unspecified)
system.caches.L1Cache_Controller.I.Store::total        12496                       (Unspecified)
system.caches.L1Cache_Controller.I.L1_Replacement |        4239     49.04%     49.04% |        4405     50.96%    100.00% (Unspecified)
system.caches.L1Cache_Controller.I.L1_Replacement::total         8644                       (Unspecified)
system.caches.L1Cache_Controller.S.Load  |    69701671     49.94%     49.94% |    69882468     50.06%    100.00% (Unspecified)
system.caches.L1Cache_Controller.S.Load::total    139584139                       (Unspecified)
system.caches.L1Cache_Controller.S.Ifetch |  1163454483     50.03%     50.03% |  1162290314     49.97%    100.00% (Unspecified)
system.caches.L1Cache_Controller.S.Ifetch::total   2325744797                       (Unspecified)
system.caches.L1Cache_Controller.S.Store |       14156     99.38%     99.38% |          89      0.62%    100.00% (Unspecified)
system.caches.L1Cache_Controller.S.Store::total        14245                       (Unspecified)
system.caches.L1Cache_Controller.S.Inv   |       29850     42.82%     42.82% |       39861     57.18%    100.00% (Unspecified)
system.caches.L1Cache_Controller.S.Inv::total        69711                       (Unspecified)
system.caches.L1Cache_Controller.S.L1_Replacement |       67136     64.53%     64.53% |       36904     35.47%    100.00% (Unspecified)
system.caches.L1Cache_Controller.S.L1_Replacement::total       104040                       (Unspecified)
system.caches.L1Cache_Controller.E.Load  |    91113270     50.04%     50.04% |    90975179     49.96%    100.00% (Unspecified)
system.caches.L1Cache_Controller.E.Load::total    182088449                       (Unspecified)
system.caches.L1Cache_Controller.E.Store |        8243     53.99%     53.99% |        7026     46.01%    100.00% (Unspecified)
system.caches.L1Cache_Controller.E.Store::total        15269                       (Unspecified)
system.caches.L1Cache_Controller.E.Inv   |        4600     51.01%     51.01% |        4417     48.99%    100.00% (Unspecified)
system.caches.L1Cache_Controller.E.Inv::total         9017                       (Unspecified)
system.caches.L1Cache_Controller.E.L1_Replacement |     6040725     49.96%     49.96% |     6050398     50.04%    100.00% (Unspecified)
system.caches.L1Cache_Controller.E.L1_Replacement::total     12091123                       (Unspecified)
system.caches.L1Cache_Controller.E.Fwd_GETX |           3      3.41%      3.41% |          85     96.59%    100.00% (Unspecified)
system.caches.L1Cache_Controller.E.Fwd_GETX::total           88                       (Unspecified)
system.caches.L1Cache_Controller.E.Fwd_GETS |        1417     30.62%     30.62% |        3210     69.38%    100.00% (Unspecified)
system.caches.L1Cache_Controller.E.Fwd_GETS::total         4627                       (Unspecified)
system.caches.L1Cache_Controller.M.Load  |    31899711     50.33%     50.33% |    31483306     49.67%    100.00% (Unspecified)
system.caches.L1Cache_Controller.M.Load::total     63383017                       (Unspecified)
system.caches.L1Cache_Controller.M.Store |   192475914     50.01%     50.01% |   192361501     49.99%    100.00% (Unspecified)
system.caches.L1Cache_Controller.M.Store::total    384837415                       (Unspecified)
system.caches.L1Cache_Controller.M.Inv   |       13107     52.37%     52.37% |       11920     47.63%    100.00% (Unspecified)
system.caches.L1Cache_Controller.M.Inv::total        25027                       (Unspecified)
system.caches.L1Cache_Controller.M.L1_Replacement |     1976845     50.05%     50.05% |     1973268     49.95%    100.00% (Unspecified)
system.caches.L1Cache_Controller.M.L1_Replacement::total      3950113                       (Unspecified)
system.caches.L1Cache_Controller.M.Fwd_GETX |          10     71.43%     71.43% |           4     28.57%    100.00% (Unspecified)
system.caches.L1Cache_Controller.M.Fwd_GETX::total           14                       (Unspecified)
system.caches.L1Cache_Controller.M.Fwd_GETS |       14557     98.99%     98.99% |         148      1.01%    100.00% (Unspecified)
system.caches.L1Cache_Controller.M.Fwd_GETS::total        14705                       (Unspecified)
system.caches.L1Cache_Controller.IS.Inv  |           0      0.00%      0.00% |           2    100.00%    100.00% (Unspecified)
system.caches.L1Cache_Controller.IS.Inv::total            2                       (Unspecified)
system.caches.L1Cache_Controller.IS.Data_Exclusive |     6058615     49.96%     49.96% |     6068800     50.04%    100.00% (Unspecified)
system.caches.L1Cache_Controller.IS.Data_Exclusive::total     12127415                       (Unspecified)
system.caches.L1Cache_Controller.IS.DataS_fromL1 |        3358     17.37%     17.37% |       15972     82.63%    100.00% (Unspecified)
system.caches.L1Cache_Controller.IS.DataS_fromL1::total        19330                       (Unspecified)
system.caches.L1Cache_Controller.IS.Data_all_Acks |       92115     61.45%     61.45% |       57797     38.55%    100.00% (Unspecified)
system.caches.L1Cache_Controller.IS.Data_all_Acks::total       149912                       (Unspecified)
system.caches.L1Cache_Controller.IM.Data |         403    100.00%    100.00% |           0      0.00%    100.00% (Unspecified)
system.caches.L1Cache_Controller.IM.Data::total          403                       (Unspecified)
system.caches.L1Cache_Controller.IM.Data_all_Acks |     1986055     50.04%     50.04% |     1982557     49.96%    100.00% (Unspecified)
system.caches.L1Cache_Controller.IM.Data_all_Acks::total      3968612                       (Unspecified)
system.caches.L1Cache_Controller.SM.Inv  |           0      0.00%      0.00% |           1    100.00%    100.00% (Unspecified)
system.caches.L1Cache_Controller.SM.Inv::total            1                       (Unspecified)
system.caches.L1Cache_Controller.SM.Ack  |       14156     99.38%     99.38% |          88      0.62%    100.00% (Unspecified)
system.caches.L1Cache_Controller.SM.Ack::total        14244                       (Unspecified)
system.caches.L1Cache_Controller.SM.Ack_all |       14559     99.40%     99.40% |          88      0.60%    100.00% (Unspecified)
system.caches.L1Cache_Controller.SM.Ack_all::total        14647                       (Unspecified)
system.caches.L1Cache_Controller.IS_I.DataS_fromL1 |           0      0.00%      0.00% |           2    100.00%    100.00% (Unspecified)
system.caches.L1Cache_Controller.IS_I.DataS_fromL1::total            2                       (Unspecified)
system.caches.L1Cache_Controller.M_I.WB_Ack |     8017570     49.98%     49.98% |     8023666     50.02%    100.00% (Unspecified)
system.caches.L1Cache_Controller.M_I.WB_Ack::total     16041236                       (Unspecified)
system.caches.Directory_Controller.Fetch     16001918      0.00%      0.00% (Unspecified)
system.caches.Directory_Controller.Data       3809427      0.00%      0.00% (Unspecified)
system.caches.Directory_Controller.Memory_Data     16001916      0.00%      0.00% (Unspecified)
system.caches.Directory_Controller.Memory_Ack      3809427      0.00%      0.00% (Unspecified)
system.caches.Directory_Controller.CleanReplacement     12061419      0.00%      0.00% (Unspecified)
system.caches.Directory_Controller.I.Fetch     16001918      0.00%      0.00% (Unspecified)
system.caches.Directory_Controller.M.Data      3809427      0.00%      0.00% (Unspecified)
system.caches.Directory_Controller.M.CleanReplacement     12061419      0.00%      0.00% (Unspecified)
system.caches.Directory_Controller.IM.Memory_Data     16001916      0.00%      0.00% (Unspecified)
system.caches.Directory_Controller.MI.Memory_Ack      3809427      0.00%      0.00% (Unspecified)
system.caches.L2Cache_Controller.L1_GET_INSTR |        6462      5.27%      5.27% |       20218     16.50%     21.77% |       17409     14.21%     35.98% |        4902      4.00%     39.98% |       11964      9.76%     49.74% |       18099     14.77%     64.51% |       21457     17.51%     82.02% |       22031     17.98%    100.00% (Unspecified)
system.caches.L2Cache_Controller.L1_GET_INSTR::total       122542                       (Unspecified)
system.caches.L2Cache_Controller.L1_GETS |     1528515     12.55%     12.55% |     1523143     12.51%     25.05% |     1519818     12.48%     37.53% |     1518455     12.47%     50.00% |     1520218     12.48%     62.48% |     1517543     12.46%     74.94% |     1531588     12.57%     87.51% |     1520690     12.49%    100.00% (Unspecified)
system.caches.L2Cache_Controller.L1_GETS::total     12179970                       (Unspecified)
system.caches.L2Cache_Controller.L1_GETX |      498808     12.57%     12.57% |      495698     12.49%     25.06% |      494871     12.47%     37.52% |      495455     12.48%     50.01% |      495225     12.48%     62.48% |      497221     12.53%     75.01% |      495500     12.48%     87.49% |      496347     12.51%    100.00% (Unspecified)
system.caches.L2Cache_Controller.L1_GETX::total      3969125                       (Unspecified)
system.caches.L2Cache_Controller.L1_UPGRADE |        3296     17.32%     17.32% |        1606      8.44%     25.76% |          12      0.06%     25.83% |           5      0.03%     25.85% |          34      0.18%     26.03% |           3      0.02%     26.05% |       14032     73.75%     99.80% |          38      0.20%    100.00% (Unspecified)
system.caches.L2Cache_Controller.L1_UPGRADE::total        19026                       (Unspecified)
system.caches.L2Cache_Controller.L1_PUTX |     2007666     12.52%     12.52% |     2006440     12.51%     25.02% |     2003646     12.49%     37.51% |     2004652     12.50%     50.01% |     2004317     12.49%     62.51% |     2005248     12.50%     75.01% |     2003885     12.49%     87.50% |     2005382     12.50%    100.00% (Unspecified)
system.caches.L2Cache_Controller.L1_PUTX::total     16041236                       (Unspecified)
system.caches.L2Cache_Controller.L2_Replacement |      473372     12.50%     12.50% |      473274     12.50%     25.00% |      473357     12.50%     37.50% |      473304     12.50%     50.00% |      473290     12.50%     62.50% |      473435     12.50%     75.00% |      473244     12.50%     87.50% |      473267     12.50%    100.00% (Unspecified)
system.caches.L2Cache_Controller.L2_Replacement::total      3786543                       (Unspecified)
system.caches.L2Cache_Controller.L2_Replacement_clean |     1511480     12.51%     12.51% |     1511418     12.51%     25.02% |     1509849     12.49%     37.51% |     1509738     12.49%     50.00% |     1510496     12.50%     62.50% |     1510682     12.50%     75.00% |     1509590     12.49%     87.50% |     1511050     12.50%    100.00% (Unspecified)
system.caches.L2Cache_Controller.L2_Replacement_clean::total     12084303                       (Unspecified)
system.caches.L2Cache_Controller.Mem_Data |     2001235     12.51%     12.51% |     2001076     12.51%     25.01% |     1999590     12.50%     37.51% |     1999425     12.49%     50.00% |     2000170     12.50%     62.50% |     2000501     12.50%     75.00% |     1999218     12.49%     87.50% |     2000701     12.50%    100.00% (Unspecified)
system.caches.L2Cache_Controller.Mem_Data::total     16001916                       (Unspecified)
system.caches.L2Cache_Controller.Mem_Ack |     1984852     12.51%     12.51% |     1984692     12.51%     25.01% |     1983206     12.50%     37.51% |     1983042     12.49%     50.00% |     1983786     12.50%     62.50% |     1984117     12.50%     75.00% |     1982834     12.49%     87.50% |     1984317     12.50%    100.00% (Unspecified)
system.caches.L2Cache_Controller.Mem_Ack::total     15870846                       (Unspecified)
system.caches.L2Cache_Controller.WB_Data |        6856     17.26%     17.26% |        4534     11.41%     28.67% |        2580      6.49%     35.16% |        3206      8.07%     43.23% |        2936      7.39%     50.62% |        3759      9.46%     60.08% |       12418     31.25%     91.33% |        3443      8.67%    100.00% (Unspecified)
system.caches.L2Cache_Controller.WB_Data::total        39732                       (Unspecified)
system.caches.L2Cache_Controller.WB_Data_clean |         891     19.26%     19.26% |         528     11.41%     30.67% |         663     14.33%     45.00% |         464     10.03%     55.02% |         679     14.67%     69.70% |         392      8.47%     78.17% |         395      8.54%     86.71% |         615     13.29%    100.00% (Unspecified)
system.caches.L2Cache_Controller.WB_Data_clean::total         4627                       (Unspecified)
system.caches.L2Cache_Controller.Ack     |        3988     15.83%     15.83% |        3170     12.59%     28.42% |        3192     12.67%     41.09% |        2518     10.00%     51.09% |        3340     13.26%     64.35% |        3139     12.46%     76.82% |        2694     10.70%     87.51% |        3145     12.49%    100.00% (Unspecified)
system.caches.L2Cache_Controller.Ack::total        25186                       (Unspecified)
system.caches.L2Cache_Controller.Ack_all |        5971     14.41%     14.41% |        6074     14.66%     29.07% |        4957     11.96%     41.03% |        4361     10.52%     51.55% |        5383     12.99%     64.54% |        4822     11.64%     76.18% |        4378     10.56%     86.74% |        5494     13.26%    100.00% (Unspecified)
system.caches.L2Cache_Controller.Ack_all::total        41440                       (Unspecified)
system.caches.L2Cache_Controller.Unblock |        4467     23.11%     23.11% |        2082     10.77%     33.88% |         691      3.57%     37.45% |         485      2.51%     39.96% |         731      3.78%     43.74% |         411      2.13%     45.87% |        9799     50.69%     96.55% |         666      3.45%    100.00% (Unspecified)
system.caches.L2Cache_Controller.Unblock::total        19332                       (Unspecified)
system.caches.L2Cache_Controller.Exclusive_Unblock |     2018415     12.53%     12.53% |     2015360     12.51%     25.04% |     2009744     12.47%     37.51% |     2011274     12.48%     50.00% |     2011220     12.48%     62.48% |     2012314     12.49%     74.97% |     2019720     12.54%     87.51% |     2012627     12.49%    100.00% (Unspecified)
system.caches.L2Cache_Controller.Exclusive_Unblock::total     16110674                       (Unspecified)
system.caches.L2Cache_Controller.NP.L1_GET_INSTR |        3610     13.89%     13.89% |        3547     13.65%     27.54% |        3028     11.65%     39.19% |        2801     10.78%     49.97% |        3259     12.54%     62.51% |        3331     12.82%     75.32% |        2940     11.31%     86.64% |        3473     13.36%    100.00% (Unspecified)
system.caches.L2Cache_Controller.NP.L1_GET_INSTR::total        25989                       (Unspecified)
system.caches.L2Cache_Controller.NP.L1_GETS |     1514335     12.50%     12.50% |     1514613     12.51%     25.01% |     1513884     12.50%     37.51% |     1513660     12.50%     50.01% |     1514009     12.50%     62.51% |     1513537     12.50%     75.00% |     1513314     12.49%     87.50% |     1514126     12.50%    100.00% (Unspecified)
system.caches.L2Cache_Controller.NP.L1_GETS::total     12111478                       (Unspecified)
system.caches.L2Cache_Controller.NP.L1_GETX |      483291     12.51%     12.51% |      482916     12.50%     25.00% |      482678     12.49%     37.49% |      482965     12.50%     49.99% |      482902     12.50%     62.49% |      483633     12.51%     75.00% |      482964     12.50%     87.50% |      483102     12.50%    100.00% (Unspecified)
system.caches.L2Cache_Controller.NP.L1_GETX::total      3864451                       (Unspecified)
system.caches.L2Cache_Controller.SS.L1_GET_INSTR |        1599      1.81%      1.81% |       15515     17.57%     19.38% |       13460     15.25%     34.63% |        1212      1.37%     36.00% |        7662      8.68%     44.68% |       13622     15.43%     60.11% |       17626     19.96%     80.08% |       17590     19.92%    100.00% (Unspecified)
system.caches.L2Cache_Controller.SS.L1_GET_INSTR::total        88286                       (Unspecified)
system.caches.L2Cache_Controller.SS.L1_GETS |        6598     28.33%     28.33% |        2506     10.76%     39.09% |        3375     14.49%     53.58% |        1799      7.72%     61.31% |        3149     13.52%     74.83% |        1600      6.87%     81.70% |         994      4.27%     85.97% |        3268     14.03%    100.00% (Unspecified)
system.caches.L2Cache_Controller.SS.L1_GETS::total        23289                       (Unspecified)
system.caches.L2Cache_Controller.SS.L1_GETX |         267     66.25%     66.25% |           0      0.00%     66.25% |           0      0.00%     66.25% |           0      0.00%     66.25% |           1      0.25%     66.50% |           0      0.00%     66.50% |         135     33.50%    100.00% |           0      0.00%    100.00% (Unspecified)
system.caches.L2Cache_Controller.SS.L1_GETX::total          403                       (Unspecified)
system.caches.L2Cache_Controller.SS.L1_UPGRADE |        3295     23.13%     23.13% |        1606     11.27%     34.41% |          12      0.08%     34.49% |           5      0.04%     34.53% |          34      0.24%     34.77% |           3      0.02%     34.79% |        9251     64.95%     99.73% |          38      0.27%    100.00% (Unspecified)
system.caches.L2Cache_Controller.SS.L1_UPGRADE::total        14244                       (Unspecified)
system.caches.L2Cache_Controller.SS.L2_Replacement |          15     11.36%     11.36% |          17     12.88%     24.24% |          17     12.88%     37.12% |          17     12.88%     50.00% |          17     12.88%     62.88% |          17     12.88%     75.76% |          17     12.88%     88.64% |          15     11.36%    100.00% (Unspecified)
system.caches.L2Cache_Controller.SS.L2_Replacement::total          132                       (Unspecified)
system.caches.L2Cache_Controller.SS.L2_Replacement_clean |        5002     15.49%     15.49% |        4204     13.02%     28.51% |        4078     12.63%     41.14% |        3400     10.53%     51.67% |        4077     12.63%     64.29% |        3894     12.06%     76.35% |        3349     10.37%     86.72% |        4287     13.28%    100.00% (Unspecified)
system.caches.L2Cache_Controller.SS.L2_Replacement_clean::total        32291                       (Unspecified)
system.caches.L2Cache_Controller.M.L1_GETS |        2541     14.12%     14.12% |        3694     20.52%     34.64% |        1426      7.92%     42.56% |        2329     12.94%     55.49% |        2145     11.92%     67.41% |        1772      9.84%     77.25% |        1720      9.55%     86.81% |        2375     13.19%    100.00% (Unspecified)
system.caches.L2Cache_Controller.M.L1_GETS::total        18002                       (Unspecified)
system.caches.L2Cache_Controller.M.L1_GETX |       15160     14.57%     14.57% |       12761     12.26%     26.83% |       12173     11.70%     38.53% |       12480     11.99%     50.52% |       12305     11.82%     62.35% |       13578     13.05%     75.40% |       12375     11.89%     87.29% |       13229     12.71%    100.00% (Unspecified)
system.caches.L2Cache_Controller.M.L1_GETX::total       104061                       (Unspecified)
system.caches.L2Cache_Controller.M.L2_Replacement |      473010     12.50%     12.50% |      473017     12.50%     25.00% |      473140     12.50%     37.50% |      473033     12.50%     50.00% |      473063     12.50%     62.50% |      473074     12.50%     75.00% |      472965     12.50%     87.50% |      472932     12.50%    100.00% (Unspecified)
system.caches.L2Cache_Controller.M.L2_Replacement::total      3784234                       (Unspecified)
system.caches.L2Cache_Controller.M.L2_Replacement_clean |     1502591     12.50%     12.50% |     1502621     12.50%     25.00% |     1502557     12.50%     37.50% |     1502463     12.50%     50.00% |     1502456     12.50%     62.50% |     1502481     12.50%     75.00% |     1502477     12.50%     87.50% |     1502499     12.50%    100.00% (Unspecified)
system.caches.L2Cache_Controller.M.L2_Replacement_clean::total     12020145                       (Unspecified)
system.caches.L2Cache_Controller.MT.L1_GETS |        4467     23.11%     23.11% |        2082     10.77%     33.88% |         691      3.57%     37.45% |         485      2.51%     39.96% |         731      3.78%     43.74% |         411      2.13%     45.87% |        9799     50.69%     96.55% |         666      3.45%    100.00% (Unspecified)
system.caches.L2Cache_Controller.MT.L1_GETS::total        19332                       (Unspecified)
system.caches.L2Cache_Controller.MT.L1_GETX |          81     79.41%     79.41% |           8      7.84%     87.25% |           2      1.96%     89.22% |           1      0.98%     90.20% |           1      0.98%     91.18% |           0      0.00%     91.18% |           7      6.86%     98.04% |           2      1.96%    100.00% (Unspecified)
system.caches.L2Cache_Controller.MT.L1_GETX::total          102                       (Unspecified)
system.caches.L2Cache_Controller.MT.L1_PUTX |     2007666     12.52%     12.52% |     2006440     12.51%     25.02% |     2003646     12.49%     37.51% |     2004652     12.50%     50.01% |     2004317     12.49%     62.51% |     2005248     12.50%     75.01% |     2003885     12.49%     87.50% |     2005382     12.50%    100.00% (Unspecified)
system.caches.L2Cache_Controller.MT.L1_PUTX::total     16041236                       (Unspecified)
system.caches.L2Cache_Controller.MT.L2_Replacement |         347     15.94%     15.94% |         240     11.02%     26.96% |         200      9.19%     36.15% |         254     11.67%     47.82% |         210      9.65%     57.46% |         344     15.80%     73.27% |         262     12.03%     85.30% |         320     14.70%    100.00% (Unspecified)
system.caches.L2Cache_Controller.MT.L2_Replacement::total         2177                       (Unspecified)
system.caches.L2Cache_Controller.MT.L2_Replacement_clean |        3887     12.20%     12.20% |        4593     14.41%     26.61% |        3214     10.09%     36.70% |        3875     12.16%     48.86% |        3963     12.44%     61.29% |        4307     13.52%     74.81% |        3764     11.81%     86.62% |        4264     13.38%    100.00% (Unspecified)
system.caches.L2Cache_Controller.MT.L2_Replacement_clean::total        31867                       (Unspecified)
system.caches.L2Cache_Controller.M_I.L1_GET_INSTR |           0      0.00%      0.00% |           0      0.00%      0.00% |           0      0.00%      0.00% |           0      0.00%      0.00% |           0      0.00%      0.00% |          19     38.78%     38.78% |           0      0.00%     38.78% |          30     61.22%    100.00% (Unspecified)
system.caches.L2Cache_Controller.M_I.L1_GET_INSTR::total           49                       (Unspecified)
system.caches.L2Cache_Controller.M_I.L1_GETS |          15     23.81%     23.81% |           9     14.29%     38.10% |           6      9.52%     47.62% |           8     12.70%     60.32% |           6      9.52%     69.84% |          11     17.46%     87.30% |           5      7.94%     95.24% |           3      4.76%    100.00% (Unspecified)
system.caches.L2Cache_Controller.M_I.L1_GETS::total           63                       (Unspecified)
system.caches.L2Cache_Controller.M_I.L1_GETX |           9      8.41%      8.41% |          12     11.21%     19.63% |          18     16.82%     36.45% |           9      8.41%     44.86% |          16     14.95%     59.81% |          10      9.35%     69.16% |          19     17.76%     86.92% |          14     13.08%    100.00% (Unspecified)
system.caches.L2Cache_Controller.M_I.L1_GETX::total          107                       (Unspecified)
system.caches.L2Cache_Controller.M_I.Mem_Ack |     1984852     12.51%     12.51% |     1984692     12.51%     25.01% |     1983206     12.50%     37.51% |     1983042     12.49%     50.00% |     1983786     12.50%     62.50% |     1984117     12.50%     75.00% |     1982834     12.49%     87.50% |     1984317     12.50%    100.00% (Unspecified)
system.caches.L2Cache_Controller.M_I.Mem_Ack::total     15870846                       (Unspecified)
system.caches.L2Cache_Controller.MT_I.WB_Data |         342     15.96%     15.96% |         235     10.97%     26.92% |         198      9.24%     36.16% |         253     11.81%     47.97% |         206      9.61%     57.58% |         342     15.96%     73.54% |         250     11.67%     85.21% |         317     14.79%    100.00% (Unspecified)
system.caches.L2Cache_Controller.MT_I.WB_Data::total         2143                       (Unspecified)
system.caches.L2Cache_Controller.MT_I.Ack_all |           5     14.71%     14.71% |           5     14.71%     29.41% |           2      5.88%     35.29% |           1      2.94%     38.24% |           4     11.76%     50.00% |           2      5.88%     55.88% |          12     35.29%     91.18% |           3      8.82%    100.00% (Unspecified)
system.caches.L2Cache_Controller.MT_I.Ack_all::total           34                       (Unspecified)
system.caches.L2Cache_Controller.MCT_I.WB_Data |        2938     12.84%     12.84% |        2745     12.00%     24.83% |        2354     10.29%     35.12% |        2932     12.81%     47.93% |        2678     11.70%     59.64% |        3398     14.85%     74.48% |        2764     12.08%     86.56% |        3075     13.44%    100.00% (Unspecified)
system.caches.L2Cache_Controller.MCT_I.WB_Data::total        22884                       (Unspecified)
system.caches.L2Cache_Controller.MCT_I.Ack_all |         949     10.56%     10.56% |        1848     20.57%     31.14% |         860      9.57%     40.71% |         943     10.50%     51.21% |        1285     14.30%     65.51% |         909     10.12%     75.63% |        1000     11.13%     86.76% |        1189     13.24%    100.00% (Unspecified)
system.caches.L2Cache_Controller.MCT_I.Ack_all::total         8983                       (Unspecified)
system.caches.L2Cache_Controller.I_I.Ack |        3973     15.86%     15.86% |        3153     12.58%     28.44% |        3175     12.67%     41.12% |        2501      9.98%     51.10% |        3323     13.26%     64.36% |        3122     12.46%     76.82% |        2677     10.68%     87.51% |        3130     12.49%    100.00% (Unspecified)
system.caches.L2Cache_Controller.I_I.Ack::total        25054                       (Unspecified)
system.caches.L2Cache_Controller.I_I.Ack_all |        5002     15.49%     15.49% |        4204     13.02%     28.51% |        4078     12.63%     41.14% |        3400     10.53%     51.67% |        4077     12.63%     64.29% |        3894     12.06%     76.35% |        3349     10.37%     86.72% |        4287     13.28%    100.00% (Unspecified)
system.caches.L2Cache_Controller.I_I.Ack_all::total        32291                       (Unspecified)
system.caches.L2Cache_Controller.S_I.Ack |          15     11.36%     11.36% |          17     12.88%     24.24% |          17     12.88%     37.12% |          17     12.88%     50.00% |          17     12.88%     62.88% |          17     12.88%     75.76% |          17     12.88%     88.64% |          15     11.36%    100.00% (Unspecified)
system.caches.L2Cache_Controller.S_I.Ack::total          132                       (Unspecified)
system.caches.L2Cache_Controller.S_I.Ack_all |          15     11.36%     11.36% |          17     12.88%     24.24% |          17     12.88%     37.12% |          17     12.88%     50.00% |          17     12.88%     62.88% |          17     12.88%     75.76% |          17     12.88%     88.64% |          15     11.36%    100.00% (Unspecified)
system.caches.L2Cache_Controller.S_I.Ack_all::total          132                       (Unspecified)
system.caches.L2Cache_Controller.ISS.L1_GETS |         554     26.83%     26.83% |         238     11.53%     38.35% |         431     20.87%     59.23% |         165      7.99%     67.22% |         177      8.57%     75.79% |         209     10.12%     85.91% |          46      2.23%     88.14% |         245     11.86%    100.00% (Unspecified)
system.caches.L2Cache_Controller.ISS.L1_GETS::total         2065                       (Unspecified)
system.caches.L2Cache_Controller.ISS.Mem_Data |     1513781     12.50%     12.50% |     1514375     12.51%     25.01% |     1513453     12.50%     37.50% |     1513495     12.50%     50.00% |     1513832     12.50%     62.50% |     1513328     12.50%     75.00% |     1513268     12.50%     87.50% |     1513881     12.50%    100.00% (Unspecified)
system.caches.L2Cache_Controller.ISS.Mem_Data::total     12109413                       (Unspecified)
system.caches.L2Cache_Controller.IS.L1_GET_INSTR |        1253     15.25%     15.25% |        1156     14.07%     29.31% |         921     11.21%     40.52% |         889     10.82%     51.34% |        1043     12.69%     64.03% |        1127     13.71%     77.74% |         891     10.84%     88.59% |         938     11.41%    100.00% (Unspecified)
system.caches.L2Cache_Controller.IS.L1_GET_INSTR::total         8218                       (Unspecified)
system.caches.L2Cache_Controller.IS.Mem_Data |        4164     14.84%     14.84% |        3785     13.49%     28.33% |        3459     12.33%     40.66% |        2966     10.57%     51.24% |        3436     12.25%     63.48% |        3540     12.62%     76.10% |        2986     10.64%     86.75% |        3718     13.25%    100.00% (Unspecified)
system.caches.L2Cache_Controller.IS.Mem_Data::total        28054                       (Unspecified)
system.caches.L2Cache_Controller.IM.L1_GETX |           0      0.00%      0.00% |           1    100.00%    100.00% |           0      0.00%    100.00% |           0      0.00%    100.00% |           0      0.00%    100.00% |           0      0.00%    100.00% |           0      0.00%    100.00% |           0      0.00%    100.00% (Unspecified)
system.caches.L2Cache_Controller.IM.L1_GETX::total            1                       (Unspecified)
system.caches.L2Cache_Controller.IM.Mem_Data |      483290     12.51%     12.51% |      482916     12.50%     25.00% |      482678     12.49%     37.49% |      482964     12.50%     49.99% |      482902     12.50%     62.49% |      483633     12.51%     75.00% |      482964     12.50%     87.50% |      483102     12.50%    100.00% (Unspecified)
system.caches.L2Cache_Controller.IM.Mem_Data::total      3864449                       (Unspecified)
system.caches.L2Cache_Controller.SS_MB.L1_GETS |           2      0.04%      0.04% |           0      0.00%      0.04% |           0      0.00%      0.04% |           0      0.00%      0.04% |           0      0.00%      0.04% |           0      0.00%      0.04% |        5709     99.96%    100.00% |           0      0.00%    100.00% (Unspecified)
system.caches.L2Cache_Controller.SS_MB.L1_GETS::total         5711                       (Unspecified)
system.caches.L2Cache_Controller.SS_MB.L1_UPGRADE |           1    100.00%    100.00% |           0      0.00%    100.00% |           0      0.00%    100.00% |           0      0.00%    100.00% |           0      0.00%    100.00% |           0      0.00%    100.00% |           0      0.00%    100.00% |           0      0.00%    100.00% (Unspecified)
system.caches.L2Cache_Controller.SS_MB.L1_UPGRADE::total            1                       (Unspecified)
system.caches.L2Cache_Controller.SS_MB.Exclusive_Unblock |        3562     24.32%     24.32% |        1606     10.96%     35.28% |          12      0.08%     35.37% |           5      0.03%     35.40% |          35      0.24%     35.64% |           3      0.02%     35.66% |        9386     64.08%     99.74% |          38      0.26%    100.00% (Unspecified)
system.caches.L2Cache_Controller.SS_MB.Exclusive_Unblock::total        14647                       (Unspecified)
system.caches.L2Cache_Controller.MT_MB.L1_GETS |           3     10.00%     10.00% |           1      3.33%     13.33% |           5     16.67%     30.00% |           9     30.00%     60.00% |           1      3.33%     63.33% |           3     10.00%     73.33% |           1      3.33%     76.67% |           7     23.33%    100.00% (Unspecified)
system.caches.L2Cache_Controller.MT_MB.L1_GETS::total           30                       (Unspecified)
system.caches.L2Cache_Controller.MT_MB.Exclusive_Unblock |     2014853     12.52%     12.52% |     2013754     12.51%     25.03% |     2009732     12.49%     37.51% |     2011269     12.50%     50.01% |     2011185     12.49%     62.50% |     2012311     12.50%     75.01% |     2010334     12.49%     87.50% |     2012589     12.50%    100.00% (Unspecified)
system.caches.L2Cache_Controller.MT_MB.Exclusive_Unblock::total     16096027                       (Unspecified)
system.caches.L2Cache_Controller.MT_IIB.WB_Data |        3576     24.32%     24.32% |        1554     10.57%     34.89% |          28      0.19%     35.08% |          21      0.14%     35.22% |          52      0.35%     35.57% |          19      0.13%     35.70% |        9404     63.95%     99.65% |          51      0.35%    100.00% (Unspecified)
system.caches.L2Cache_Controller.MT_IIB.WB_Data::total        14705                       (Unspecified)
system.caches.L2Cache_Controller.MT_IIB.WB_Data_clean |         891     19.26%     19.26% |         528     11.41%     30.67% |         663     14.33%     45.00% |         464     10.03%     55.02% |         679     14.67%     69.70% |         392      8.47%     78.17% |         395      8.54%     86.71% |         615     13.29%    100.00% (Unspecified)
system.caches.L2Cache_Controller.MT_IIB.WB_Data_clean::total         4627                       (Unspecified)
system.caches.L2Cache_Controller.MT_SB.L1_UPGRADE |           0      0.00%      0.00% |           0      0.00%      0.00% |           0      0.00%      0.00% |           0      0.00%      0.00% |           0      0.00%      0.00% |           0      0.00%      0.00% |        4781    100.00%    100.00% |           0      0.00%    100.00% (Unspecified)
system.caches.L2Cache_Controller.MT_SB.L1_UPGRADE::total         4781                       (Unspecified)
system.caches.L2Cache_Controller.MT_SB.Unblock |        4467     23.11%     23.11% |        2082     10.77%     33.88% |         691      3.57%     37.45% |         485      2.51%     39.96% |         731      3.78%     43.74% |         411      2.13%     45.87% |        9799     50.69%     96.55% |         666      3.45%    100.00% (Unspecified)
system.caches.L2Cache_Controller.MT_SB.Unblock::total        19332                       (Unspecified)
system.caches.RequestType.LD.latency_hist_seqr::bucket_size          512                       (Unspecified)
system.caches.RequestType.LD.latency_hist_seqr::max_bucket         5119                       (Unspecified)
system.caches.RequestType.LD.latency_hist_seqr::samples    397229771                       (Unspecified)
system.caches.RequestType.LD.latency_hist_seqr::mean    18.211651                       (Unspecified)
system.caches.RequestType.LD.latency_hist_seqr::gmean     1.211431                       (Unspecified)
system.caches.RequestType.LD.latency_hist_seqr::stdev   107.552582                       (Unspecified)
system.caches.RequestType.LD.latency_hist_seqr |   393720041     99.12%     99.12% |     3066700      0.77%     99.89% |       86364      0.02%     99.91% |      316739      0.08%     99.99% |       39083      0.01%    100.00% |         832      0.00%    100.00% |          12      0.00%    100.00% |           0      0.00%    100.00% |           0      0.00%    100.00% |           0      0.00%    100.00% (Unspecified)
system.caches.RequestType.LD.latency_hist_seqr::total    397229771                       (Unspecified)
system.caches.RequestType.LD.hit_latency_hist_seqr::bucket_size            1                       (Unspecified)
system.caches.RequestType.LD.hit_latency_hist_seqr::max_bucket            9                       (Unspecified)
system.caches.RequestType.LD.hit_latency_hist_seqr::samples    385055605                       (Unspecified)
system.caches.RequestType.LD.hit_latency_hist_seqr::mean            1                       (Unspecified)
system.caches.RequestType.LD.hit_latency_hist_seqr::gmean            1                       (Unspecified)
system.caches.RequestType.LD.hit_latency_hist_seqr |           0      0.00%      0.00% |   385055605    100.00%    100.00% |           0      0.00%    100.00% |           0      0.00%    100.00% |           0      0.00%    100.00% |           0      0.00%    100.00% |           0      0.00%    100.00% |           0      0.00%    100.00% |           0      0.00%    100.00% |           0      0.00%    100.00% (Unspecified)
system.caches.RequestType.LD.hit_latency_hist_seqr::total    385055605                       (Unspecified)
system.caches.RequestType.LD.miss_latency_hist_seqr::bucket_size          512                       (Unspecified)
[...]
system.timingCpu0.exec_context.thread_0.statExecutedInstType::SimdSha1Hash2            0      0.00%     77.35% # Class of executed instruction. (Count)
system.timingCpu0.exec_context.thread_0.statExecutedInstType::SimdSha256Hash            0      0.00%     77.35% # Class of executed instruction. (Count)
system.timingCpu0.exec_context.thread_0.statExecutedInstType::SimdSha256Hash2            0      0.00%     77.35% # Class of executed instruction. (Count)
system.timingCpu0.exec_context.thread_0.statExecutedInstType::SimdShaSigma2            0      0.00%     77.35% # Class of executed instruction. (Count)
system.timingCpu0.exec_context.thread_0.statExecutedInstType::SimdShaSigma3            0      0.00%     77.35% # Class of executed instruction. (Count)
system.timingCpu0.exec_context.thread_0.statExecutedInstType::SimdPredAlu            0      0.00%     77.35% # Class of executed instruction. (Count)
system.timingCpu0.exec_context.thread_0.statExecutedInstType::MemRead    195277783     13.66%     91.01% # Class of executed instruction. (Count)
system.timingCpu0.exec_context.thread_0.statExecutedInstType::MemWrite    128496969      8.99%    100.00% # Class of executed instruction. (Count)
system.timingCpu0.exec_context.thread_0.statExecutedInstType::FloatMemRead           64      0.00%    100.00% # Class of executed instruction. (Count)
system.timingCpu0.exec_context.thread_0.statExecutedInstType::FloatMemWrite          224      0.00%    100.00% # Class of executed instruction. (Count)
system.timingCpu0.exec_context.thread_0.statExecutedInstType::IprAccess            0      0.00%    100.00% # Class of executed instruction. (Count)
system.timingCpu0.exec_context.thread_0.statExecutedInstType::InstPrefetch            0      0.00%    100.00% # Class of executed instruction. (Count)
system.timingCpu0.exec_context.thread_0.statExecutedInstType::total   1429418997                       # Class of executed instruction. (Count)
system.timingCpu0.mmu.dtb.rdAccesses        195329829                       # TLB accesses on read requests (Count)
system.timingCpu0.mmu.dtb.wrAccesses        151593561                       # TLB accesses on write requests (Count)
system.timingCpu0.mmu.dtb.rdMisses              51982                       # TLB misses on read requests (Count)
system.timingCpu0.mmu.dtb.wrMisses           23096374                       # TLB misses on write requests (Count)
system.timingCpu0.mmu.dtb.walker.power_state.pwrStateResidencyTicks::UNDEFINED 28478322473250                       # Cumulative time (in ticks) in various power states (Tick)
system.timingCpu0.mmu.itb.rdAccesses                0                       # TLB accesses on read requests (Count)
system.timingCpu0.mmu.itb.wrAccesses       1163534242                       # TLB accesses on write requests (Count)
system.timingCpu0.mmu.itb.rdMisses                  0                       # TLB misses on read requests (Count)
system.timingCpu0.mmu.itb.wrMisses               2093                       # TLB misses on write requests (Count)
system.timingCpu0.mmu.itb.walker.power_state.pwrStateResidencyTicks::UNDEFINED 28478322473250                       # Cumulative time (in ticks) in various power states (Tick)
system.timingCpu0.power_state.numTransitions            4                       # Number of power state transitions (Count)
system.timingCpu0.power_state.ticksClkGated::samples            2                       # Distribution of time spent in the clock gated state (Tick)
system.timingCpu0.power_state.ticksClkGated::mean    288640125                       # Distribution of time spent in the clock gated state (Tick)
system.timingCpu0.power_state.ticksClkGated::stdev 131432589.069573                       # Distribution of time spent in the clock gated state (Tick)
system.timingCpu0.power_state.ticksClkGated::1000-5e+10            2    100.00%    100.00% # Distribution of time spent in the clock gated state (Tick)
system.timingCpu0.power_state.ticksClkGated::min_value    195703250                       # Distribution of time spent in the clock gated state (Tick)
system.timingCpu0.power_state.ticksClkGated::max_value    381577000                       # Distribution of time spent in the clock gated state (Tick)
system.timingCpu0.power_state.ticksClkGated::total            2                       # Distribution of time spent in the clock gated state (Tick)
system.timingCpu0.power_state.pwrStateResidencyTicks::ON 1012126770000                       # Cumulative time (in ticks) in various power states (Tick)
system.timingCpu0.power_state.pwrStateResidencyTicks::CLK_GATED    577280250                       # Cumulative time (in ticks) in various power states (Tick)
system.timingCpu0.power_state.pwrStateResidencyTicks::OFF 27465618423000                       # Cumulative time (in ticks) in various power states (Tick)
system.timingCpu0.thread_0.numInsts                 0                       # Number of Instructions committed (Count)
system.timingCpu0.thread_0.numOps                   0                       # Number of Ops committed (Count)
system.timingCpu0.thread_0.numMemRefs               0                       # Number of Memory References (Count)
system.timingCpu1.numCycles                7999999572                       # Number of cpu cycles simulated (Cycle)
system.timingCpu1.numWorkItemsStarted               0                       # Number of work items this cpu started (Count)
system.timingCpu1.numWorkItemsCompleted             0                       # Number of work items this cpu completed (Count)
system.timingCpu1.exec_context.thread_0.numInsts    901614773                       # Number of instructions committed (Count)
system.timingCpu1.exec_context.thread_0.numOps   1425901498                       # Number of ops (including micro ops) committed (Count)
system.timingCpu1.exec_context.thread_0.numIntAluAccesses   1425601472                       # Number of integer alu accesses (Count)
system.timingCpu1.exec_context.thread_0.numFpAluAccesses          192                       # Number of float alu accesses (Count)
system.timingCpu1.exec_context.thread_0.numVecAluAccesses            0                       # Number of vector alu accesses (Count)
system.timingCpu1.exec_context.thread_0.numCallsReturns       311226                       # Number of times a function call or return occured (Count)
system.timingCpu1.exec_context.thread_0.numCondCtrlInsts     97365541                       # Number of instructions that are conditional controls (Count)
system.timingCpu1.exec_context.thread_0.numIntInsts   1425601472                       # Number of integer instructions (Count)
system.timingCpu1.exec_context.thread_0.numFpInsts          192                       # Number of float instructions (Count)
system.timingCpu1.exec_context.thread_0.numVecInsts            0                       # Number of vector instructions (Count)
system.timingCpu1.exec_context.thread_0.numIntRegReads   2453128970                       # Number of times the integer registers were read (Count)
system.timingCpu1.exec_context.thread_0.numIntRegWrites   1102333876                       # Number of times the integer registers were written (Count)
system.timingCpu1.exec_context.thread_0.numFpRegReads          192                       # Number of times the floating registers were read (Count)
system.timingCpu1.exec_context.thread_0.numFpRegWrites            0                       # Number of times the floating registers were written (Count)
system.timingCpu1.exec_context.thread_0.numVecRegReads            0                       # Number of times the vector registers were read (Count)
system.timingCpu1.exec_context.thread_0.numVecRegWrites            0                       # Number of times the vector registers were written (Count)
system.timingCpu1.exec_context.thread_0.numVecPredRegReads            0                       # Number of times the predicate registers were read (Count)
system.timingCpu1.exec_context.thread_0.numVecPredRegWrites            0                       # Number of times the predicate registers were written (Count)
system.timingCpu1.exec_context.thread_0.numCCRegReads    585234625                       # Number of times the CC registers were read (Count)
system.timingCpu1.exec_context.thread_0.numCCRegWrites    715088175                       # Number of times the CC registers were written (Count)
system.timingCpu1.exec_context.thread_0.numMiscRegReads    518943365                       # Number of times the Misc registers were read (Count)
system.timingCpu1.exec_context.thread_0.numMiscRegWrites        68759                       # Number of times the Misc registers were written (Count)
system.timingCpu1.exec_context.thread_0.numMemRefs    323177303                       # Number of memory refs (Count)
system.timingCpu1.exec_context.thread_0.numLoadInsts    194917992                       # Number of load instructions (Count)
system.timingCpu1.exec_context.thread_0.numStoreInsts    128259311                       # Number of store instructions (Count)
system.timingCpu1.exec_context.thread_0.numIdleCycles            0                       # Number of idle cycles (Cycle)
system.timingCpu1.exec_context.thread_0.numBusyCycles   7999999572                       # Number of busy cycles (Cycle)
system.timingCpu1.exec_context.thread_0.notIdleFraction            1                       # Percentage of non-idle cycles (Ratio)
system.timingCpu1.exec_context.thread_0.idleFraction            0                       # Percentage of idle cycles (Ratio)
system.timingCpu1.exec_context.thread_0.numBranches     97849707                       # Number of branches fetched (Count)
system.timingCpu1.exec_context.thread_0.statExecutedInstType::No_OpClass        12123      0.00%      0.00% # Class of executed instruction. (Count)
system.timingCpu1.exec_context.thread_0.statExecutedInstType::IntAlu   1102580161     77.33%     77.33% # Class of executed instruction. (Count)
system.timingCpu1.exec_context.thread_0.statExecutedInstType::IntMult        45693      0.00%     77.33% # Class of executed instruction. (Count)
system.timingCpu1.exec_context.thread_0.statExecutedInstType::IntDiv        86154      0.01%     77.34% # Class of executed instruction. (Count)
system.timingCpu1.exec_context.thread_0.statExecutedInstType::FloatAdd            0      0.00%     77.34% # Class of executed instruction. (Count)
system.timingCpu1.exec_context.thread_0.statExecutedInstType::FloatCmp            0      0.00%     77.34% # Class of executed instruction. (Count)
system.timingCpu1.exec_context.thread_0.statExecutedInstType::FloatCvt           64      0.00%     77.34% # Class of executed instruction. (Count)
system.timingCpu1.exec_context.thread_0.statExecutedInstType::FloatMult            0      0.00%     77.34% # Class of executed instruction. (Count)
system.timingCpu1.exec_context.thread_0.statExecutedInstType::FloatMultAcc            0      0.00%     77.34% # Class of executed instruction. (Count)
system.timingCpu1.exec_context.thread_0.statExecutedInstType::FloatDiv            0      0.00%     77.34% # Class of executed instruction. (Count)
system.timingCpu1.exec_context.thread_0.statExecutedInstType::FloatMisc            0      0.00%     77.34% # Class of executed instruction. (Count)
system.timingCpu1.exec_context.thread_0.statExecutedInstType::FloatSqrt            0      0.00%     77.34% # Class of executed instruction. (Count)
system.timingCpu1.exec_context.thread_0.statExecutedInstType::SimdAdd            0      0.00%     77.34% # Class of executed instruction. (Count)
system.timingCpu1.exec_context.thread_0.statExecutedInstType::SimdAddAcc            0      0.00%     77.34% # Class of executed instruction. (Count)
system.timingCpu1.exec_context.thread_0.statExecutedInstType::SimdAlu            0      0.00%     77.34% # Class of executed instruction. (Count)
system.timingCpu1.exec_context.thread_0.statExecutedInstType::SimdCmp            0      0.00%     77.34% # Class of executed instruction. (Count)
system.timingCpu1.exec_context.thread_0.statExecutedInstType::SimdCvt            0      0.00%     77.34% # Class of executed instruction. (Count)
system.timingCpu1.exec_context.thread_0.statExecutedInstType::SimdMisc            0      0.00%     77.34% # Class of executed instruction. (Count)
system.timingCpu1.exec_context.thread_0.statExecutedInstType::SimdMult            0      0.00%     77.34% # Class of executed instruction. (Count)
system.timingCpu1.exec_context.thread_0.statExecutedInstType::SimdMultAcc            0      0.00%     77.34% # Class of executed instruction. (Count)
system.timingCpu1.exec_context.thread_0.statExecutedInstType::SimdShift            0      0.00%     77.34% # Class of executed instruction. (Count)
system.timingCpu1.exec_context.thread_0.statExecutedInstType::SimdShiftAcc            0      0.00%     77.34% # Class of executed instruction. (Count)
system.timingCpu1.exec_context.thread_0.statExecutedInstType::SimdDiv            0      0.00%     77.34% # Class of executed instruction. (Count)
system.timingCpu1.exec_context.thread_0.statExecutedInstType::SimdSqrt            0      0.00%     77.34% # Class of executed instruction. (Count)
system.timingCpu1.exec_context.thread_0.statExecutedInstType::SimdFloatAdd            0      0.00%     77.34% # Class of executed instruction. (Count)
system.timingCpu1.exec_context.thread_0.statExecutedInstType::SimdFloatAlu            0      0.00%     77.34% # Class of executed instruction. (Count)
system.timingCpu1.exec_context.thread_0.statExecutedInstType::SimdFloatCmp            0      0.00%     77.34% # Class of executed instruction. (Count)
system.timingCpu1.exec_context.thread_0.statExecutedInstType::SimdFloatCvt            0      0.00%     77.34% # Class of executed instruction. (Count)
system.timingCpu1.exec_context.thread_0.statExecutedInstType::SimdFloatDiv            0      0.00%     77.34% # Class of executed instruction. (Count)
system.timingCpu1.exec_context.thread_0.statExecutedInstType::SimdFloatMisc            0      0.00%     77.34% # Class of executed instruction. (Count)
system.timingCpu1.exec_context.thread_0.statExecutedInstType::SimdFloatMult            0      0.00%     77.34% # Class of executed instruction. (Count)
system.timingCpu1.exec_context.thread_0.statExecutedInstType::SimdFloatMultAcc            0      0.00%     77.34% # Class of executed instruction. (Count)
system.timingCpu1.exec_context.thread_0.statExecutedInstType::SimdFloatSqrt            0      0.00%     77.34% # Class of executed instruction. (Count)
system.timingCpu1.exec_context.thread_0.statExecutedInstType::SimdReduceAdd            0      0.00%     77.34% # Class of executed instruction. (Count)
system.timingCpu1.exec_context.thread_0.statExecutedInstType::SimdReduceAlu            0      0.00%     77.34% # Class of executed instruction. (Count)
system.timingCpu1.exec_context.thread_0.statExecutedInstType::SimdReduceCmp            0      0.00%     77.34% # Class of executed instruction. (Count)
system.timingCpu1.exec_context.thread_0.statExecutedInstType::SimdFloatReduceAdd            0      0.00%     77.34% # Class of executed instruction. (Count)
system.timingCpu1.exec_context.thread_0.statExecutedInstType::SimdFloatReduceCmp            0      0.00%     77.34% # Class of executed instruction. (Count)
system.timingCpu1.exec_context.thread_0.statExecutedInstType::SimdAes            0      0.00%     77.34% # Class of executed instruction. (Count)
system.timingCpu1.exec_context.thread_0.statExecutedInstType::SimdAesMix            0      0.00%     77.34% # Class of executed instruction. (Count)
system.timingCpu1.exec_context.thread_0.statExecutedInstType::SimdSha1Hash            0      0.00%     77.34% # Class of executed instruction. (Count)
system.timingCpu1.exec_context.thread_0.statExecutedInstType::SimdSha1Hash2            0      0.00%     77.34% # Class of executed instruction. (Count)
system.timingCpu1.exec_context.thread_0.statExecutedInstType::SimdSha256Hash            0      0.00%     77.34% # Class of executed instruction. (Count)
system.timingCpu1.exec_context.thread_0.statExecutedInstType::SimdSha256Hash2            0      0.00%     77.34% # Class of executed instruction. (Count)
system.timingCpu1.exec_context.thread_0.statExecutedInstType::SimdShaSigma2            0      0.00%     77.34% # Class of executed instruction. (Count)
system.timingCpu1.exec_context.thread_0.statExecutedInstType::SimdShaSigma3            0      0.00%     77.34% # Class of executed instruction. (Count)
system.timingCpu1.exec_context.thread_0.statExecutedInstType::SimdPredAlu            0      0.00%     77.34% # Class of executed instruction. (Count)
system.timingCpu1.exec_context.thread_0.statExecutedInstType::MemRead    194917992     13.67%     91.01% # Class of executed instruction. (Count)
system.timingCpu1.exec_context.thread_0.statExecutedInstType::MemWrite    128259183      8.99%    100.00% # Class of executed instruction. (Count)
system.timingCpu1.exec_context.thread_0.statExecutedInstType::FloatMemRead            0      0.00%    100.00% # Class of executed instruction. (Count)
system.timingCpu1.exec_context.thread_0.statExecutedInstType::FloatMemWrite          128      0.00%    100.00% # Class of executed instruction. (Count)
system.timingCpu1.exec_context.thread_0.statExecutedInstType::IprAccess            0      0.00%    100.00% # Class of executed instruction. (Count)
system.timingCpu1.exec_context.thread_0.statExecutedInstType::InstPrefetch            0      0.00%    100.00% # Class of executed instruction. (Count)
system.timingCpu1.exec_context.thread_0.statExecutedInstType::total   1425901498                       # Class of executed instruction. (Count)
system.timingCpu1.mmu.dtb.rdAccesses        194995745                       # TLB accesses on read requests (Count)
system.timingCpu1.mmu.dtb.wrAccesses        151358372                       # TLB accesses on write requests (Count)
system.timingCpu1.mmu.dtb.rdMisses              78025                       # TLB misses on read requests (Count)
system.timingCpu1.mmu.dtb.wrMisses           23099164                       # TLB misses on write requests (Count)
system.timingCpu1.mmu.dtb.walker.power_state.pwrStateResidencyTicks::UNDEFINED 28478322473250                       # Cumulative time (in ticks) in various power states (Tick)
system.timingCpu1.mmu.itb.rdAccesses                0                       # TLB accesses on read requests (Count)
system.timingCpu1.mmu.itb.wrAccesses       1162337155                       # TLB accesses on write requests (Count)
system.timingCpu1.mmu.itb.rdMisses                  0                       # TLB misses on read requests (Count)
system.timingCpu1.mmu.itb.wrMisses               2014                       # TLB misses on write requests (Count)
system.timingCpu1.mmu.itb.walker.power_state.pwrStateResidencyTicks::UNDEFINED 28478322473250                       # Cumulative time (in ticks) in various power states (Tick)
system.timingCpu1.power_state.pwrStateResidencyTicks::OFF 28478322473250                       # Cumulative time (in ticks) in various power states (Tick)
system.timingCpu1.thread_0.numInsts                 0                       # Number of Instructions committed (Count)
system.timingCpu1.thread_0.numOps                   0                       # Number of Ops committed (Count)
system.timingCpu1.thread_0.numMemRefs               0                       # Number of Memory References (Count)
system.workload.inst.arm                            0                       # number of arm instructions executed (Count)
system.workload.inst.quiesce                        0                       # number of quiesce instructions executed (Count)

---------- End Simulation Statistics   ----------
