
---------- Begin Simulation Statistics ----------
simSeconds                                   0.100000                       # Number of seconds simulated (Second)
simTicks                                 100000000000                       # Number of ticks simulated (Tick)
finalTick                                19069224091400                       # Number of ticks from beginning of simulation (restored from checkpoints and never reset) (Tick)
simFreq                                  1000000000000                       # The number of ticks per simulated second ((Tick/Second))
hostSeconds                                    570.41                       # Real time elapsed on the host (Second)
hostTickRate                                175311070                       # The number of ticks simulated per host second (ticks/s) ((Tick/Second))
hostMemory                                    7444140                       # Number of bytes of host memory used (Byte)
simInsts                                  24707625442                       # Number of instructions simulated (Count)
simOps                                    24738918490                       # Number of ops (including micro ops) simulated (Count)
hostInstRate                                 43315192                       # Simulator instruction rate (inst/s) ((Count/Second))
hostOpRate                                   43370051                       # Simulator op (including micro ops) rate (op/s) ((Count/Second))
system.atomicCpu0.numCycles                         0                       # Number of cpu cycles simulated (Cycle)
system.atomicCpu0.numWorkItemsStarted               0                       # Number of work items this cpu started (Count)
system.atomicCpu0.numWorkItemsCompleted             0                       # Number of work items this cpu completed (Count)
system.atomicCpu0.exec_context.thread_0.numInsts            0                       # Number of instructions committed (Count)
system.atomicCpu0.exec_context.thread_0.numOps            0                       # Number of ops (including micro ops) committed (Count)
system.atomicCpu0.exec_context.thread_0.numIntAluAccesses            0                       # Number of integer alu accesses (Count)
system.atomicCpu0.exec_context.thread_0.numFpAluAccesses            0                       # Number of float alu accesses (Count)
system.atomicCpu0.exec_context.thread_0.numVecAluAccesses            0                       # Number of vector alu accesses (Count)
system.atomicCpu0.exec_context.thread_0.numCallsReturns            0                       # Number of times a function call or return occured (Count)
system.atomicCpu0.exec_context.thread_0.numCondCtrlInsts            0                       # Number of instructions that are conditional controls (Count)
system.atomicCpu0.exec_context.thread_0.numIntInsts            0                       # Number of integer instructions (Count)
system.atomicCpu0.exec_context.thread_0.numFpInsts            0                       # Number of float instructions (Count)
system.atomicCpu0.exec_context.thread_0.numVecInsts            0                       # Number of vector instructions (Count)
system.atomicCpu0.exec_context.thread_0.numIntRegReads            0                       # Number of times the integer registers were read (Count)
system.atomicCpu0.exec_context.thread_0.numIntRegWrites            0                       # Number of times the integer registers were written (Count)
system.atomicCpu0.exec_context.thread_0.numFpRegReads            0                       # Number of times the floating registers were read (Count)
system.atomicCpu0.exec_context.thread_0.numFpRegWrites            0                       # Number of times the floating registers were written (Count)
system.atomicCpu0.exec_context.thread_0.numVecRegReads            0                       # Number of times the vector registers were read (Count)
system.atomicCpu0.exec_context.thread_0.numVecRegWrites            0                       # Number of times the vector registers were written (Count)
system.atomicCpu0.exec_context.thread_0.numVecPredRegReads            0                       # Number of times the predicate registers were read (Count)
system.atomicCpu0.exec_context.thread_0.numVecPredRegWrites            0                       # Number of times the predicate registers were written (Count)
system.atomicCpu0.exec_context.thread_0.numMiscRegReads            0                       # Number of times the Misc registers were read (Count)
system.atomicCpu0.exec_context.thread_0.numMiscRegWrites            0                       # Number of times the Misc registers were written (Count)
system.atomicCpu0.exec_context.thread_0.numMemRefs            0                       # Number of memory refs (Count)
system.atomicCpu0.exec_context.thread_0.numLoadInsts            0                       # Number of load instructions (Count)
system.atomicCpu0.exec_context.thread_0.numStoreInsts            0                       # Number of store instructions (Count)
system.atomicCpu0.exec_context.thread_0.numIdleCycles            0                       # Number of idle cycles (Cycle)
system.atomicCpu0.exec_context.thread_0.numBusyCycles            0                       # Number of busy cycles (Cycle)
system.atomicCpu0.exec_context.thread_0.notIdleFraction            0                       # Percentage of non-idle cycles (Ratio)
system.atomicCpu0.exec_context.thread_0.idleFraction            1                       # Percentage of idle cycles (Ratio)
system.atomicCpu0.exec_context.thread_0.statExecutedInstType::No_OpClass            0                       # Class of executed instruction. (Count)
system.atomicCpu0.exec_context.thread_0.statExecutedInstType::IntAlu            0                       # Class of executed instruction. (Count)
system.atomicCpu0.exec_context.thread_0.statExecutedInstType::IntMult            0                       # Class of executed instruction. (Count)
system.atomicCpu0.exec_context.thread_0.statExecutedInstType::IntDiv            0                       # Class of executed instruction. (Count)
system.atomicCpu0.exec_context.thread_0.statExecutedInstType::FloatAdd            0                       # Class of executed instruction. (Count)
system.atomicCpu0.exec_context.thread_0.statExecutedInstType::FloatCmp            0                       # Class of executed instruction. (Count)
system.atomicCpu0.exec_context.thread_0.statExecutedInstType::FloatCvt            0                       # Class of executed instruction. (Count)
system.atomicCpu0.exec_context.thread_0.statExecutedInstType::FloatMult            0                       # Class of executed instruction. (Count)
system.atomicCpu0.exec_context.thread_0.statExecutedInstType::FloatMultAcc            0                       # Class of executed instruction. (Count)
system.atomicCpu0.exec_context.thread_0.statExecutedInstType::FloatDiv            0                       # Class of executed instruction. (Count)
system.atomicCpu0.exec_context.thread_0.statExecutedInstType::FloatMisc            0                       # Class of executed instruction. (Count)
system.atomicCpu0.exec_context.thread_0.statExecutedInstType::FloatSqrt            0                       # Class of executed instruction. (Count)
system.atomicCpu0.exec_context.thread_0.statExecutedInstType::SimdAdd            0                       # Class of executed instruction. (Count)
system.atomicCpu0.exec_context.thread_0.statExecutedInstType::SimdAddAcc            0                       # Class of executed instruction. (Count)
system.atomicCpu0.exec_context.thread_0.statExecutedInstType::SimdAlu            0                       # Class of executed instruction. (Count)
system.atomicCpu0.exec_context.thread_0.statExecutedInstType::SimdCmp            0                       # Class of executed instruction. (Count)
system.atomicCpu0.exec_context.thread_0.statExecutedInstType::SimdCvt            0                       # Class of executed instruction. (Count)
system.atomicCpu0.exec_context.thread_0.statExecutedInstType::SimdMisc            0                       # Class of executed instruction. (Count)
system.atomicCpu0.exec_context.thread_0.statExecutedInstType::SimdMult            0                       # Class of executed instruction. (Count)
system.atomicCpu0.exec_context.thread_0.statExecutedInstType::SimdMultAcc            0                       # Class of executed instruction. (Count)
system.atomicCpu0.exec_context.thread_0.statExecutedInstType::SimdShift            0                       # Class of executed instruction. (Count)
system.atomicCpu0.exec_context.thread_0.statExecutedInstType::SimdShiftAcc            0                       # Class of executed instruction. (Count)
system.atomicCpu0.exec_context.thread_0.statExecutedInstType::SimdDiv            0                       # Class of executed instruction. (Count)
system.atomicCpu0.exec_context.thread_0.statExecutedInstType::SimdSqrt            0                       # Class of executed instruction. (Count)
system.atomicCpu0.exec_context.thread_0.statExecutedInstType::SimdFloatAdd            0                       # Class of executed instruction. (Count)
system.atomicCpu0.exec_context.thread_0.statExecutedInstType::SimdFloatAlu            0                       # Class of executed instruction. (Count)
system.atomicCpu0.exec_context.thread_0.statExecutedInstType::SimdFloatCmp            0                       # Class of executed instruction. (Count)
system.atomicCpu0.exec_context.thread_0.statExecutedInstType::SimdFloatCvt            0                       # Class of executed instruction. (Count)
system.atomicCpu0.exec_context.thread_0.statExecutedInstType::SimdFloatDiv            0                       # Class of executed instruction. (Count)
system.atomicCpu0.exec_context.thread_0.statExecutedInstType::SimdFloatMisc            0                       # Class of executed instruction. (Count)
system.atomicCpu0.exec_context.thread_0.statExecutedInstType::SimdFloatMult            0                       # Class of executed instruction. (Count)
system.atomicCpu0.exec_context.thread_0.statExecutedInstType::SimdFloatMultAcc            0                       # Class of executed instruction. (Count)
system.atomicCpu0.exec_context.thread_0.statExecutedInstType::SimdFloatSqrt            0                       # Class of executed instruction. (Count)
system.atomicCpu0.exec_context.thread_0.statExecutedInstType::SimdReduceAdd            0                       # Class of executed instruction. (Count)
system.atomicCpu0.exec_context.thread_0.statExecutedInstType::SimdReduceAlu            0                       # Class of executed instruction. (Count)
system.atomicCpu0.exec_context.thread_0.statExecutedInstType::SimdReduceCmp            0                       # Class of executed instruction. (Count)
system.atomicCpu0.exec_context.thread_0.statExecutedInstType::SimdFloatReduceAdd            0                       # Class of executed instruction. (Count)
system.atomicCpu0.exec_context.thread_0.statExecutedInstType::SimdFloatReduceCmp            0                       # Class of executed instruction. (Count)
system.atomicCpu0.exec_context.thread_0.statExecutedInstType::SimdAes            0                       # Class of executed instruction. (Count)
system.atomicCpu0.exec_context.thread_0.statExecutedInstType::SimdAesMix            0                       # Class of executed instruction. (Count)
system.atomicCpu0.exec_context.thread_0.statExecutedInstType::SimdSha1Hash            0                       # Class of executed instruction. (Count)
system.atomicCpu0.exec_context.thread_0.statExecutedInstType::SimdSha1Hash2            0                       # Class of executed instruction. (Count)
system.atomicCpu0.exec_context.thread_0.statExecutedInstType::SimdSha256Hash            0                       # Class of executed instruction. (Count)
system.atomicCpu0.exec_context.thread_0.statExecutedInstType::SimdSha256Hash2            0                       # Class of executed instruction. (Count)
system.atomicCpu0.exec_context.thread_0.statExecutedInstType::SimdShaSigma2            0                       # Class of executed instruction. (Count)
system.atomicCpu0.exec_context.thread_0.statExecutedInstType::SimdShaSigma3            0                       # Class of executed instruction. (Count)
system.atomicCpu0.exec_context.thread_0.statExecutedInstType::SimdPredAlu            0                       # Class of executed instruction. (Count)
system.atomicCpu0.exec_context.thread_0.statExecutedInstType::MemRead            0                       # Class of executed instruction. (Count)
system.atomicCpu0.exec_context.thread_0.statExecutedInstType::MemWrite            0                       # Class of executed instruction. (Count)
system.atomicCpu0.exec_context.thread_0.statExecutedInstType::FloatMemRead            0                       # Class of executed instruction. (Count)
system.atomicCpu0.exec_context.thread_0.statExecutedInstType::FloatMemWrite            0                       # Class of executed instruction. (Count)
system.atomicCpu0.exec_context.thread_0.statExecutedInstType::IprAccess            0                       # Class of executed instruction. (Count)
system.atomicCpu0.exec_context.thread_0.statExecutedInstType::InstPrefetch            0                       # Class of executed instruction. (Count)
system.atomicCpu0.exec_context.thread_0.statExecutedInstType::total            0                       # Class of executed instruction. (Count)
system.atomicCpu0.mmu.dtb.rdAccesses                0                       # TLB accesses on read requests (Count)
system.atomicCpu0.mmu.dtb.wrAccesses                0                       # TLB accesses on write requests (Count)
system.atomicCpu0.mmu.dtb.rdMisses                  0                       # TLB misses on read requests (Count)
system.atomicCpu0.mmu.dtb.wrMisses                  0                       # TLB misses on write requests (Count)
system.atomicCpu0.mmu.dtb.walker.power_state.pwrStateResidencyTicks::UNDEFINED 19069224091400                       # Cumulative time (in ticks) in various power states (Tick)
system.atomicCpu0.mmu.itb.rdAccesses                0                       # TLB accesses on read requests (Count)
system.atomicCpu0.mmu.itb.wrAccesses                0                       # TLB accesses on write requests (Count)
system.atomicCpu0.mmu.itb.rdMisses                  0                       # TLB misses on read requests (Count)
system.atomicCpu0.mmu.itb.wrMisses                  0                       # TLB misses on write requests (Count)
system.atomicCpu0.mmu.itb.walker.power_state.pwrStateResidencyTicks::UNDEFINED 19069224091400                       # Cumulative time (in ticks) in various power states (Tick)
system.atomicCpu0.power_state.pwrStateResidencyTicks::OFF 19069224091400                       # Cumulative time (in ticks) in various power states (Tick)
system.atomicCpu0.thread_0.numInsts                 0                       # Number of Instructions committed (Count)
system.atomicCpu0.thread_0.numOps                   0                       # Number of Ops committed (Count)
system.atomicCpu0.thread_0.numMemRefs               0                       # Number of Memory References (Count)
system.atomicCpu1.numCycles                         0                       # Number of cpu cycles simulated (Cycle)
system.atomicCpu1.numWorkItemsStarted               0                       # Number of work items this cpu started (Count)
system.atomicCpu1.numWorkItemsCompleted             0                       # Number of work items this cpu completed (Count)
system.atomicCpu1.exec_context.thread_0.numInsts            0                       # Number of instructions committed (Count)
system.atomicCpu1.exec_context.thread_0.numOps            0                       # Number of ops (including micro ops) committed (Count)
system.atomicCpu1.exec_context.thread_0.numIntAluAccesses            0                       # Number of integer alu accesses (Count)
system.atomicCpu1.exec_context.thread_0.numFpAluAccesses            0                       # Number of float alu accesses (Count)
system.atomicCpu1.exec_context.thread_0.numVecAluAccesses            0                       # Number of vector alu accesses (Count)
system.atomicCpu1.exec_context.thread_0.numCallsReturns            0                       # Number of times a function call or return occured (Count)
system.atomicCpu1.exec_context.thread_0.numCondCtrlInsts            0                       # Number of instructions that are conditional controls (Count)
system.atomicCpu1.exec_context.thread_0.numIntInsts            0                       # Number of integer instructions (Count)
system.atomicCpu1.exec_context.thread_0.numFpInsts            0                       # Number of float instructions (Count)
system.atomicCpu1.exec_context.thread_0.numVecInsts            0                       # Number of vector instructions (Count)
system.atomicCpu1.exec_context.thread_0.numIntRegReads            0                       # Number of times the integer registers were read (Count)
system.atomicCpu1.exec_context.thread_0.numIntRegWrites            0                       # Number of times the integer registers were written (Count)
system.atomicCpu1.exec_context.thread_0.numFpRegReads            0                       # Number of times the floating registers were read (Count)
system.atomicCpu1.exec_context.thread_0.numFpRegWrites            0                       # Number of times the floating registers were written (Count)
system.atomicCpu1.exec_context.thread_0.numVecRegReads            0                       # Number of times the vector registers were read (Count)
system.atomicCpu1.exec_context.thread_0.numVecRegWrites            0                       # Number of times the vector registers were written (Count)
system.atomicCpu1.exec_context.thread_0.numVecPredRegReads            0                       # Number of times the predicate registers were read (Count)
system.atomicCpu1.exec_context.thread_0.numVecPredRegWrites            0                       # Number of times the predicate registers were written (Count)
system.atomicCpu1.exec_context.thread_0.numMiscRegReads            0                       # Number of times the Misc registers were read (Count)
system.atomicCpu1.exec_context.thread_0.numMiscRegWrites            0                       # Number of times the Misc registers were written (Count)
system.atomicCpu1.exec_context.thread_0.numMemRefs            0                       # Number of memory refs (Count)
system.atomicCpu1.exec_context.thread_0.numLoadInsts            0                       # Number of load instructions (Count)
system.atomicCpu1.exec_context.thread_0.numStoreInsts            0                       # Number of store instructions (Count)
system.atomicCpu1.exec_context.thread_0.numIdleCycles            0                       # Number of idle cycles (Cycle)
system.atomicCpu1.exec_context.thread_0.numBusyCycles            0                       # Number of busy cycles (Cycle)
system.atomicCpu1.exec_context.thread_0.notIdleFraction            0                       # Percentage of non-idle cycles (Ratio)
system.atomicCpu1.exec_context.thread_0.idleFraction            1                       # Percentage of idle cycles (Ratio)
system.atomicCpu1.exec_context.thread_0.statExecutedInstType::No_OpClass            0                       # Class of executed instruction. (Count)
system.atomicCpu1.exec_context.thread_0.statExecutedInstType::IntAlu            0                       # Class of executed instruction. (Count)
system.atomicCpu1.exec_context.thread_0.statExecutedInstType::IntMult            0                       # Class of executed instruction. (Count)
system.atomicCpu1.exec_context.thread_0.statExecutedInstType::IntDiv            0                       # Class of executed instruction. (Count)
system.atomicCpu1.exec_context.thread_0.statExecutedInstType::FloatAdd            0                       # Class of executed instruction. (Count)
system.atomicCpu1.exec_context.thread_0.statExecutedInstType::FloatCmp            0                       # Class of executed instruction. (Count)
system.atomicCpu1.exec_context.thread_0.statExecutedInstType::FloatCvt            0                       # Class of executed instruction. (Count)
system.atomicCpu1.exec_context.thread_0.statExecutedInstType::FloatMult            0                       # Class of executed instruction. (Count)
system.atomicCpu1.exec_context.thread_0.statExecutedInstType::FloatMultAcc            0                       # Class of executed instruction. (Count)
system.atomicCpu1.exec_context.thread_0.statExecutedInstType::FloatDiv            0                       # Class of executed instruction. (Count)
system.atomicCpu1.exec_context.thread_0.statExecutedInstType::FloatMisc            0                       # Class of executed instruction. (Count)
system.atomicCpu1.exec_context.thread_0.statExecutedInstType::FloatSqrt            0                       # Class of executed instruction. (Count)
system.atomicCpu1.exec_context.thread_0.statExecutedInstType::SimdAdd            0                       # Class of executed instruction. (Count)
system.atomicCpu1.exec_context.thread_0.statExecutedInstType::SimdAddAcc            0                       # Class of executed instruction. (Count)
system.atomicCpu1.exec_context.thread_0.statExecutedInstType::SimdAlu            0                       # Class of executed instruction. (Count)
system.atomicCpu1.exec_context.thread_0.statExecutedInstType::SimdCmp            0                       # Class of executed instruction. (Count)
system.atomicCpu1.exec_context.thread_0.statExecutedInstType::SimdCvt            0                       # Class of executed instruction. (Count)
system.atomicCpu1.exec_context.thread_0.statExecutedInstType::SimdMisc            0                       # Class of executed instruction. (Count)
system.atomicCpu1.exec_context.thread_0.statExecutedInstType::SimdMult            0                       # Class of executed instruction. (Count)
system.atomicCpu1.exec_context.thread_0.statExecutedInstType::SimdMultAcc            0                       # Class of executed instruction. (Count)
system.atomicCpu1.exec_context.thread_0.statExecutedInstType::SimdShift            0                       # Class of executed instruction. (Count)
system.atomicCpu1.exec_context.thread_0.statExecutedInstType::SimdShiftAcc            0                       # Class of executed instruction. (Count)
system.atomicCpu1.exec_context.thread_0.statExecutedInstType::SimdDiv            0                       # Class of executed instruction. (Count)
system.atomicCpu1.exec_context.thread_0.statExecutedInstType::SimdSqrt            0                       # Class of executed instruction. (Count)
system.atomicCpu1.exec_context.thread_0.statExecutedInstType::SimdFloatAdd            0                       # Class of executed instruction. (Count)
system.atomicCpu1.exec_context.thread_0.statExecutedInstType::SimdFloatAlu            0                       # Class of executed instruction. (Count)
system.atomicCpu1.exec_context.thread_0.statExecutedInstType::SimdFloatCmp            0                       # Class of executed instruction. (Count)
system.atomicCpu1.exec_context.thread_0.statExecutedInstType::SimdFloatCvt            0                       # Class of executed instruction. (Count)
system.atomicCpu1.exec_context.thread_0.statExecutedInstType::SimdFloatDiv            0                       # Class of executed instruction. (Count)
system.atomicCpu1.exec_context.thread_0.statExecutedInstType::SimdFloatMisc            0                       # Class of executed instruction. (Count)
system.atomicCpu1.exec_context.thread_0.statExecutedInstType::SimdFloatMult            0                       # Class of executed instruction. (Count)
system.atomicCpu1.exec_context.thread_0.statExecutedInstType::SimdFloatMultAcc            0                       # Class of executed instruction. (Count)
system.atomicCpu1.exec_context.thread_0.statExecutedInstType::SimdFloatSqrt            0                       # Class of executed instruction. (Count)
system.atomicCpu1.exec_context.thread_0.statExecutedInstType::SimdReduceAdd            0                       # Class of executed instruction. (Count)
system.atomicCpu1.exec_context.thread_0.statExecutedInstType::SimdReduceAlu            0                       # Class of executed instruction. (Count)
system.atomicCpu1.exec_context.thread_0.statExecutedInstType::SimdReduceCmp            0                       # Class of executed instruction. (Count)
system.atomicCpu1.exec_context.thread_0.statExecutedInstType::SimdFloatReduceAdd            0                       # Class of executed instruction. (Count)
system.atomicCpu1.exec_context.thread_0.statExecutedInstType::SimdFloatReduceCmp            0                       # Class of executed instruction. (Count)
system.atomicCpu1.exec_context.thread_0.statExecutedInstType::SimdAes            0                       # Class of executed instruction. (Count)
system.atomicCpu1.exec_context.thread_0.statExecutedInstType::SimdAesMix            0                       # Class of executed instruction. (Count)
system.atomicCpu1.exec_context.thread_0.statExecutedInstType::SimdSha1Hash            0                       # Class of executed instruction. (Count)
system.atomicCpu1.exec_context.thread_0.statExecutedInstType::SimdSha1Hash2            0                       # Class of executed instruction. (Count)
system.atomicCpu1.exec_context.thread_0.statExecutedInstType::SimdSha256Hash            0                       # Class of executed instruction. (Count)
system.atomicCpu1.exec_context.thread_0.statExecutedInstType::SimdSha256Hash2            0                       # Class of executed instruction. (Count)
system.atomicCpu1.exec_context.thread_0.statExecutedInstType::SimdShaSigma2            0                       # Class of executed instruction. (Count)
system.atomicCpu1.exec_context.thread_0.statExecutedInstType::SimdShaSigma3            0                       # Class of executed instruction. (Count)
system.atomicCpu1.exec_context.thread_0.statExecutedInstType::SimdPredAlu            0                       # Class of executed instruction. (Count)
system.atomicCpu1.exec_context.thread_0.statExecutedInstType::MemRead            0                       # Class of executed instruction. (Count)
system.atomicCpu1.exec_context.thread_0.statExecutedInstType::MemWrite            0                       # Class of executed instruction. (Count)
system.atomicCpu1.exec_context.thread_0.statExecutedInstType::FloatMemRead            0                       # Class of executed instruction. (Count)
system.atomicCpu1.exec_context.thread_0.statExecutedInstType::FloatMemWrite            0                       # Class of executed instruction. (Count)
system.atomicCpu1.exec_context.thread_0.statExecutedInstType::IprAccess            0                       # Class of executed instruction. (Count)
system.atomicCpu1.exec_context.thread_0.statExecutedInstType::InstPrefetch            0                       # Class of executed instruction. (Count)
system.atomicCpu1.exec_context.thread_0.statExecutedInstType::total            0                       # Class of executed instruction. (Count)
system.atomicCpu1.mmu.dtb.rdAccesses                0                       # TLB accesses on read requests (Count)
system.atomicCpu1.mmu.dtb.wrAccesses                0                       # TLB accesses on write requests (Count)
system.atomicCpu1.mmu.dtb.rdMisses                  0                       # TLB misses on read requests (Count)
system.atomicCpu1.mmu.dtb.wrMisses                  0                       # TLB misses on write requests (Count)
system.atomicCpu1.mmu.dtb.walker.power_state.pwrStateResidencyTicks::UNDEFINED 19069224091400                       # Cumulative time (in ticks) in various power states (Tick)
system.atomicCpu1.mmu.itb.rdAccesses                0                       # TLB accesses on read requests (Count)
system.atomicCpu1.mmu.itb.wrAccesses                0                       # TLB accesses on write requests (Count)
system.atomicCpu1.mmu.itb.rdMisses                  0                       # TLB misses on read requests (Count)
system.atomicCpu1.mmu.itb.wrMisses                  0                       # TLB misses on write requests (Count)
system.atomicCpu1.mmu.itb.walker.power_state.pwrStateResidencyTicks::UNDEFINED 19069224091400                       # Cumulative time (in ticks) in various power states (Tick)
system.atomicCpu1.power_state.pwrStateResidencyTicks::OFF 19069224091400                       # Cumulative time (in ticks) in various power states (Tick)
system.atomicCpu1.thread_0.numInsts                 0                       # Number of Instructions committed (Count)
system.atomicCpu1.thread_0.numOps                   0                       # Number of Ops committed (Count)
system.atomicCpu1.thread_0.numMemRefs               0                       # Number of Memory References (Count)
system.atomicCpu2.numCycles                         0                       # Number of cpu cycles simulated (Cycle)
system.atomicCpu2.numWorkItemsStarted               0                       # Number of work items this cpu started (Count)
system.atomicCpu2.numWorkItemsCompleted             0                       # Number of work items this cpu completed (Count)
system.atomicCpu2.exec_context.thread_0.numInsts            0                       # Number of instructions committed (Count)
system.atomicCpu2.exec_context.thread_0.numOps            0                       # Number of ops (including micro ops) committed (Count)
system.atomicCpu2.exec_context.thread_0.numIntAluAccesses            0                       # Number of integer alu accesses (Count)
system.atomicCpu2.exec_context.thread_0.numFpAluAccesses            0                       # Number of float alu accesses (Count)
system.atomicCpu2.exec_context.thread_0.numVecAluAccesses            0                       # Number of vector alu accesses (Count)
system.atomicCpu2.exec_context.thread_0.numCallsReturns            0                       # Number of times a function call or return occured (Count)
system.atomicCpu2.exec_context.thread_0.numCondCtrlInsts            0                       # Number of instructions that are conditional controls (Count)
system.atomicCpu2.exec_context.thread_0.numIntInsts            0                       # Number of integer instructions (Count)
system.atomicCpu2.exec_context.thread_0.numFpInsts            0                       # Number of float instructions (Count)
system.atomicCpu2.exec_context.thread_0.numVecInsts            0                       # Number of vector instructions (Count)
system.atomicCpu2.exec_context.thread_0.numIntRegReads            0                       # Number of times the integer registers were read (Count)
system.atomicCpu2.exec_context.thread_0.numIntRegWrites            0                       # Number of times the integer registers were written (Count)
system.atomicCpu2.exec_context.thread_0.numFpRegReads            0                       # Number of times the floating registers were read (Count)
system.atomicCpu2.exec_context.thread_0.numFpRegWrites            0                       # Number of times the floating registers were written (Count)
system.atomicCpu2.exec_context.thread_0.numVecRegReads            0                       # Number of times the vector registers were read (Count)
system.atomicCpu2.exec_context.thread_0.numVecRegWrites            0                       # Number of times the vector registers were written (Count)
system.atomicCpu2.exec_context.thread_0.numVecPredRegReads            0                       # Number of times the predicate registers were read (Count)
system.atomicCpu2.exec_context.thread_0.numVecPredRegWrites            0                       # Number of times the predicate registers were written (Count)
system.atomicCpu2.exec_context.thread_0.numMiscRegReads            0                       # Number of times the Misc registers were read (Count)
system.atomicCpu2.exec_context.thread_0.numMiscRegWrites            0                       # Number of times the Misc registers were written (Count)
system.atomicCpu2.exec_context.thread_0.numMemRefs            0                       # Number of memory refs (Count)
system.atomicCpu2.exec_context.thread_0.numLoadInsts            0                       # Number of load instructions (Count)
system.atomicCpu2.exec_context.thread_0.numStoreInsts            0                       # Number of store instructions (Count)
system.atomicCpu2.exec_context.thread_0.numIdleCycles            0                       # Number of idle cycles (Cycle)
system.atomicCpu2.exec_context.thread_0.numBusyCycles            0                       # Number of busy cycles (Cycle)
system.atomicCpu2.exec_context.thread_0.notIdleFraction            0                       # Percentage of non-idle cycles (Ratio)
system.atomicCpu2.exec_context.thread_0.idleFraction            1                       # Percentage of idle cycles (Ratio)
system.atomicCpu2.exec_context.thread_0.statExecutedInstType::No_OpClass            0                       # Class of executed instruction. (Count)
system.atomicCpu2.exec_context.thread_0.statExecutedInstType::IntAlu            0                       # Class of executed instruction. (Count)
system.atomicCpu2.exec_context.thread_0.statExecutedInstType::IntMult            0                       # Class of executed instruction. (Count)
system.atomicCpu2.exec_context.thread_0.statExecutedInstType::IntDiv            0                       # Class of executed instruction. (Count)
system.atomicCpu2.exec_context.thread_0.statExecutedInstType::FloatAdd            0                       # Class of executed instruction. (Count)
system.atomicCpu2.exec_context.thread_0.statExecutedInstType::FloatCmp            0                       # Class of executed instruction. (Count)
system.atomicCpu2.exec_context.thread_0.statExecutedInstType::FloatCvt            0                       # Class of executed instruction. (Count)
system.atomicCpu2.exec_context.thread_0.statExecutedInstType::FloatMult            0                       # Class of executed instruction. (Count)
system.atomicCpu2.exec_context.thread_0.statExecutedInstType::FloatMultAcc            0                       # Class of executed instruction. (Count)
system.atomicCpu2.exec_context.thread_0.statExecutedInstType::FloatDiv            0                       # Class of executed instruction. (Count)
system.atomicCpu2.exec_context.thread_0.statExecutedInstType::FloatMisc            0                       # Class of executed instruction. (Count)
system.atomicCpu2.exec_context.thread_0.statExecutedInstType::FloatSqrt            0                       # Class of executed instruction. (Count)
system.atomicCpu2.exec_context.thread_0.statExecutedInstType::SimdAdd            0                       # Class of executed instruction. (Count)
system.atomicCpu2.exec_context.thread_0.statExecutedInstType::SimdAddAcc            0                       # Class of executed instruction. (Count)
system.atomicCpu2.exec_context.thread_0.statExecutedInstType::SimdAlu            0                       # Class of executed instruction. (Count)
system.atomicCpu2.exec_context.thread_0.statExecutedInstType::SimdCmp            0                       # Class of executed instruction. (Count)
system.atomicCpu2.exec_context.thread_0.statExecutedInstType::SimdCvt            0                       # Class of executed instruction. (Count)
system.atomicCpu2.exec_context.thread_0.statExecutedInstType::SimdMisc            0                       # Class of executed instruction. (Count)
system.atomicCpu2.exec_context.thread_0.statExecutedInstType::SimdMult            0                       # Class of executed instruction. (Count)
system.atomicCpu2.exec_context.thread_0.statExecutedInstType::SimdMultAcc            0                       # Class of executed instruction. (Count)
system.atomicCpu2.exec_context.thread_0.statExecutedInstType::SimdShift            0                       # Class of executed instruction. (Count)
system.atomicCpu2.exec_context.thread_0.statExecutedInstType::SimdShiftAcc            0                       # Class of executed instruction. (Count)
system.atomicCpu2.exec_context.thread_0.statExecutedInstType::SimdDiv            0                       # Class of executed instruction. (Count)
system.atomicCpu2.exec_context.thread_0.statExecutedInstType::SimdSqrt            0                       # Class of executed instruction. (Count)
system.atomicCpu2.exec_context.thread_0.statExecutedInstType::SimdFloatAdd            0                       # Class of executed instruction. (Count)
system.atomicCpu2.exec_context.thread_0.statExecutedInstType::SimdFloatAlu            0                       # Class of executed instruction. (Count)
system.atomicCpu2.exec_context.thread_0.statExecutedInstType::SimdFloatCmp            0                       # Class of executed instruction. (Count)
system.atomicCpu2.exec_context.thread_0.statExecutedInstType::SimdFloatCvt            0                       # Class of executed instruction. (Count)
system.atomicCpu2.exec_context.thread_0.statExecutedInstType::SimdFloatDiv            0                       # Class of executed instruction. (Count)
system.atomicCpu2.exec_context.thread_0.statExecutedInstType::SimdFloatMisc            0                       # Class of executed instruction. (Count)
system.atomicCpu2.exec_context.thread_0.statExecutedInstType::SimdFloatMult            0                       # Class of executed instruction. (Count)
system.atomicCpu2.exec_context.thread_0.statExecutedInstType::SimdFloatMultAcc            0                       # Class of executed instruction. (Count)
system.atomicCpu2.exec_context.thread_0.statExecutedInstType::SimdFloatSqrt            0                       # Class of executed instruction. (Count)
system.atomicCpu2.exec_context.thread_0.statExecutedInstType::SimdReduceAdd            0                       # Class of executed instruction. (Count)
system.atomicCpu2.exec_context.thread_0.statExecutedInstType::SimdReduceAlu            0                       # Class of executed instruction. (Count)
system.atomicCpu2.exec_context.thread_0.statExecutedInstType::SimdReduceCmp            0                       # Class of executed instruction. (Count)
system.atomicCpu2.exec_context.thread_0.statExecutedInstType::SimdFloatReduceAdd            0                       # Class of executed instruction. (Count)
system.atomicCpu2.exec_context.thread_0.statExecutedInstType::SimdFloatReduceCmp            0                       # Class of executed instruction. (Count)
system.atomicCpu2.exec_context.thread_0.statExecutedInstType::SimdAes            0                       # Class of executed instruction. (Count)
system.atomicCpu2.exec_context.thread_0.statExecutedInstType::SimdAesMix            0                       # Class of executed instruction. (Count)
system.atomicCpu2.exec_context.thread_0.statExecutedInstType::SimdSha1Hash            0                       # Class of executed instruction. (Count)
system.atomicCpu2.exec_context.thread_0.statExecutedInstType::SimdSha1Hash2            0                       # Class of executed instruction. (Count)
system.atomicCpu2.exec_context.thread_0.statExecutedInstType::SimdSha256Hash            0                       # Class of executed instruction. (Count)
system.atomicCpu2.exec_context.thread_0.statExecutedInstType::SimdSha256Hash2            0                       # Class of executed instruction. (Count)
system.atomicCpu2.exec_context.thread_0.statExecutedInstType::SimdShaSigma2            0                       # Class of executed instruction. (Count)
system.atomicCpu2.exec_context.thread_0.statExecutedInstType::SimdShaSigma3            0                       # Class of executed instruction. (Count)
system.atomicCpu2.exec_context.thread_0.statExecutedInstType::SimdPredAlu            0                       # Class of executed instruction. (Count)
system.atomicCpu2.exec_context.thread_0.statExecutedInstType::MemRead            0                       # Class of executed instruction. (Count)
system.atomicCpu2.exec_context.thread_0.statExecutedInstType::MemWrite            0                       # Class of executed instruction. (Count)
system.atomicCpu2.exec_context.thread_0.statExecutedInstType::FloatMemRead            0                       # Class of executed instruction. (Count)
system.atomicCpu2.exec_context.thread_0.statExecutedInstType::FloatMemWrite            0                       # Class of executed instruction. (Count)
system.atomicCpu2.exec_context.thread_0.statExecutedInstType::IprAccess            0                       # Class of executed instruction. (Count)
system.atomicCpu2.exec_context.thread_0.statExecutedInstType::InstPrefetch            0                       # Class of executed instruction. (Count)
system.atomicCpu2.exec_context.thread_0.statExecutedInstType::total            0                       # Class of executed instruction. (Count)
system.atomicCpu2.mmu.dtb.rdAccesses                0                       # TLB accesses on read requests (Count)
system.atomicCpu2.mmu.dtb.wrAccesses                0                       # TLB accesses on write requests (Count)
system.atomicCpu2.mmu.dtb.rdMisses                  0                       # TLB misses on read requests (Count)
system.atomicCpu2.mmu.dtb.wrMisses                  0                       # TLB misses on write requests (Count)
system.atomicCpu2.mmu.dtb.walker.power_state.pwrStateResidencyTicks::UNDEFINED 19069224091400                       # Cumulative time (in ticks) in various power states (Tick)
system.atomicCpu2.mmu.itb.rdAccesses                0                       # TLB accesses on read requests (Count)
system.atomicCpu2.mmu.itb.wrAccesses                0                       # TLB accesses on write requests (Count)
system.atomicCpu2.mmu.itb.rdMisses                  0                       # TLB misses on read requests (Count)
system.atomicCpu2.mmu.itb.wrMisses                  0                       # TLB misses on write requests (Count)
system.atomicCpu2.mmu.itb.walker.power_state.pwrStateResidencyTicks::UNDEFINED 19069224091400                       # Cumulative time (in ticks) in various power states (Tick)
system.atomicCpu2.power_state.pwrStateResidencyTicks::OFF 19069224091400                       # Cumulative time (in ticks) in various power states (Tick)
system.atomicCpu2.thread_0.numInsts                 0                       # Number of Instructions committed (Count)
system.atomicCpu2.thread_0.numOps                   0                       # Number of Ops committed (Count)
system.atomicCpu2.thread_0.numMemRefs               0                       # Number of Memory References (Count)
system.atomicCpu3.numCycles                         0                       # Number of cpu cycles simulated (Cycle)
system.atomicCpu3.numWorkItemsStarted               0                       # Number of work items this cpu started (Count)
system.atomicCpu3.numWorkItemsCompleted             0                       # Number of work items this cpu completed (Count)
system.atomicCpu3.exec_context.thread_0.numInsts            0                       # Number of instructions committed (Count)
system.atomicCpu3.exec_context.thread_0.numOps            0                       # Number of ops (including micro ops) committed (Count)
system.atomicCpu3.exec_context.thread_0.numIntAluAccesses            0                       # Number of integer alu accesses (Count)
system.atomicCpu3.exec_context.thread_0.numFpAluAccesses            0                       # Number of float alu accesses (Count)
system.atomicCpu3.exec_context.thread_0.numVecAluAccesses            0                       # Number of vector alu accesses (Count)
system.atomicCpu3.exec_context.thread_0.numCallsReturns            0                       # Number of times a function call or return occured (Count)
system.atomicCpu3.exec_context.thread_0.numCondCtrlInsts            0                       # Number of instructions that are conditional controls (Count)
system.atomicCpu3.exec_context.thread_0.numIntInsts            0                       # Number of integer instructions (Count)
system.atomicCpu3.exec_context.thread_0.numFpInsts            0                       # Number of float instructions (Count)
system.atomicCpu3.exec_context.thread_0.numVecInsts            0                       # Number of vector instructions (Count)
system.atomicCpu3.exec_context.thread_0.numIntRegReads            0                       # Number of times the integer registers were read (Count)
system.atomicCpu3.exec_context.thread_0.numIntRegWrites            0                       # Number of times the integer registers were written (Count)
system.atomicCpu3.exec_context.thread_0.numFpRegReads            0                       # Number of times the floating registers were read (Count)
system.atomicCpu3.exec_context.thread_0.numFpRegWrites            0                       # Number of times the floating registers were written (Count)
system.atomicCpu3.exec_context.thread_0.numVecRegReads            0                       # Number of times the vector registers were read (Count)
system.atomicCpu3.exec_context.thread_0.numVecRegWrites            0                       # Number of times the vector registers were written (Count)
system.atomicCpu3.exec_context.thread_0.numVecPredRegReads            0                       # Number of times the predicate registers were read (Count)
system.atomicCpu3.exec_context.thread_0.numVecPredRegWrites            0                       # Number of times the predicate registers were written (Count)
system.atomicCpu3.exec_context.thread_0.numMiscRegReads            0                       # Number of times the Misc registers were read (Count)
system.atomicCpu3.exec_context.thread_0.numMiscRegWrites            0                       # Number of times the Misc registers were written (Count)
system.atomicCpu3.exec_context.thread_0.numMemRefs            0                       # Number of memory refs (Count)
system.atomicCpu3.exec_context.thread_0.numLoadInsts            0                       # Number of load instructions (Count)
system.atomicCpu3.exec_context.thread_0.numStoreInsts            0                       # Number of store instructions (Count)
system.atomicCpu3.exec_context.thread_0.numIdleCycles            0                       # Number of idle cycles (Cycle)
system.atomicCpu3.exec_context.thread_0.numBusyCycles            0                       # Number of busy cycles (Cycle)
system.atomicCpu3.exec_context.thread_0.notIdleFraction            0                       # Percentage of non-idle cycles (Ratio)
system.atomicCpu3.exec_context.thread_0.idleFraction            1                       # Percentage of idle cycles (Ratio)
system.atomicCpu3.exec_context.thread_0.statExecutedInstType::No_OpClass            0                       # Class of executed instruction. (Count)
system.atomicCpu3.exec_context.thread_0.statExecutedInstType::IntAlu            0                       # Class of executed instruction. (Count)
system.atomicCpu3.exec_context.thread_0.statExecutedInstType::IntMult            0                       # Class of executed instruction. (Count)
system.atomicCpu3.exec_context.thread_0.statExecutedInstType::IntDiv            0                       # Class of executed instruction. (Count)
system.atomicCpu3.exec_context.thread_0.statExecutedInstType::FloatAdd            0                       # Class of executed instruction. (Count)
system.atomicCpu3.exec_context.thread_0.statExecutedInstType::FloatCmp            0                       # Class of executed instruction. (Count)
system.atomicCpu3.exec_context.thread_0.statExecutedInstType::FloatCvt            0                       # Class of executed instruction. (Count)
system.atomicCpu3.exec_context.thread_0.statExecutedInstType::FloatMult            0                       # Class of executed instruction. (Count)
system.atomicCpu3.exec_context.thread_0.statExecutedInstType::FloatMultAcc            0                       # Class of executed instruction. (Count)
system.atomicCpu3.exec_context.thread_0.statExecutedInstType::FloatDiv            0                       # Class of executed instruction. (Count)
system.atomicCpu3.exec_context.thread_0.statExecutedInstType::FloatMisc            0                       # Class of executed instruction. (Count)
system.atomicCpu3.exec_context.thread_0.statExecutedInstType::FloatSqrt            0                       # Class of executed instruction. (Count)
system.atomicCpu3.exec_context.thread_0.statExecutedInstType::SimdAdd            0                       # Class of executed instruction. (Count)
system.atomicCpu3.exec_context.thread_0.statExecutedInstType::SimdAddAcc            0                       # Class of executed instruction. (Count)
system.atomicCpu3.exec_context.thread_0.statExecutedInstType::SimdAlu            0                       # Class of executed instruction. (Count)
system.atomicCpu3.exec_context.thread_0.statExecutedInstType::SimdCmp            0                       # Class of executed instruction. (Count)
system.atomicCpu3.exec_context.thread_0.statExecutedInstType::SimdCvt            0                       # Class of executed instruction. (Count)
system.atomicCpu3.exec_context.thread_0.statExecutedInstType::SimdMisc            0                       # Class of executed instruction. (Count)
system.atomicCpu3.exec_context.thread_0.statExecutedInstType::SimdMult            0                       # Class of executed instruction. (Count)
system.atomicCpu3.exec_context.thread_0.statExecutedInstType::SimdMultAcc            0                       # Class of executed instruction. (Count)
system.atomicCpu3.exec_context.thread_0.statExecutedInstType::SimdShift            0                       # Class of executed instruction. (Count)
system.atomicCpu3.exec_context.thread_0.statExecutedInstType::SimdShiftAcc            0                       # Class of executed instruction. (Count)
system.atomicCpu3.exec_context.thread_0.statExecutedInstType::SimdDiv            0                       # Class of executed instruction. (Count)
system.atomicCpu3.exec_context.thread_0.statExecutedInstType::SimdSqrt            0                       # Class of executed instruction. (Count)
system.atomicCpu3.exec_context.thread_0.statExecutedInstType::SimdFloatAdd            0                       # Class of executed instruction. (Count)
system.atomicCpu3.exec_context.thread_0.statExecutedInstType::SimdFloatAlu            0                       # Class of executed instruction. (Count)
system.atomicCpu3.exec_context.thread_0.statExecutedInstType::SimdFloatCmp            0                       # Class of executed instruction. (Count)
system.atomicCpu3.exec_context.thread_0.statExecutedInstType::SimdFloatCvt            0                       # Class of executed instruction. (Count)
system.atomicCpu3.exec_context.thread_0.statExecutedInstType::SimdFloatDiv            0                       # Class of executed instruction. (Count)
system.atomicCpu3.exec_context.thread_0.statExecutedInstType::SimdFloatMisc            0                       # Class of executed instruction. (Count)
system.atomicCpu3.exec_context.thread_0.statExecutedInstType::SimdFloatMult            0                       # Class of executed instruction. (Count)
system.atomicCpu3.exec_context.thread_0.statExecutedInstType::SimdFloatMultAcc            0                       # Class of executed instruction. (Count)
system.atomicCpu3.exec_context.thread_0.statExecutedInstType::SimdFloatSqrt            0                       # Class of executed instruction. (Count)
system.atomicCpu3.exec_context.thread_0.statExecutedInstType::SimdReduceAdd            0                       # Class of executed instruction. (Count)
system.atomicCpu3.exec_context.thread_0.statExecutedInstType::SimdReduceAlu            0                       # Class of executed instruction. (Count)
system.atomicCpu3.exec_context.thread_0.statExecutedInstType::SimdReduceCmp            0                       # Class of executed instruction. (Count)
system.atomicCpu3.exec_context.thread_0.statExecutedInstType::SimdFloatReduceAdd            0                       # Class of executed instruction. (Count)
system.atomicCpu3.exec_context.thread_0.statExecutedInstType::SimdFloatReduceCmp            0                       # Class of executed instruction. (Count)
system.atomicCpu3.exec_context.thread_0.statExecutedInstType::SimdAes            0                       # Class of executed instruction. (Count)
system.atomicCpu3.exec_context.thread_0.statExecutedInstType::SimdAesMix            0                       # Class of executed instruction. (Count)
system.atomicCpu3.exec_context.thread_0.statExecutedInstType::SimdSha1Hash            0                       # Class of executed instruction. (Count)
system.atomicCpu3.exec_context.thread_0.statExecutedInstType::SimdSha1Hash2            0                       # Class of executed instruction. (Count)
system.atomicCpu3.exec_context.thread_0.statExecutedInstType::SimdSha256Hash            0                       # Class of executed instruction. (Count)
system.atomicCpu3.exec_context.thread_0.statExecutedInstType::SimdSha256Hash2            0                       # Class of executed instruction. (Count)
system.atomicCpu3.exec_context.thread_0.statExecutedInstType::SimdShaSigma2            0                       # Class of executed instruction. (Count)
system.atomicCpu3.exec_context.thread_0.statExecutedInstType::SimdShaSigma3            0                       # Class of executed instruction. (Count)
system.atomicCpu3.exec_context.thread_0.statExecutedInstType::SimdPredAlu            0                       # Class of executed instruction. (Count)
system.atomicCpu3.exec_context.thread_0.statExecutedInstType::MemRead            0                       # Class of executed instruction. (Count)
system.atomicCpu3.exec_context.thread_0.statExecutedInstType::MemWrite            0                       # Class of executed instruction. (Count)
system.atomicCpu3.exec_context.thread_0.statExecutedInstType::FloatMemRead            0                       # Class of executed instruction. (Count)
system.atomicCpu3.exec_context.thread_0.statExecutedInstType::FloatMemWrite            0                       # Class of executed instruction. (Count)
system.atomicCpu3.exec_context.thread_0.statExecutedInstType::IprAccess            0                       # Class of executed instruction. (Count)
system.atomicCpu3.exec_context.thread_0.statExecutedInstType::InstPrefetch            0                       # Class of executed instruction. (Count)
system.atomicCpu3.exec_context.thread_0.statExecutedInstType::total            0                       # Class of executed instruction. (Count)
system.atomicCpu3.mmu.dtb.rdAccesses                0                       # TLB accesses on read requests (Count)
system.atomicCpu3.mmu.dtb.wrAccesses                0                       # TLB accesses on write requests (Count)
system.atomicCpu3.mmu.dtb.rdMisses                  0                       # TLB misses on read requests (Count)
system.atomicCpu3.mmu.dtb.wrMisses                  0                       # TLB misses on write requests (Count)
system.atomicCpu3.mmu.dtb.walker.power_state.pwrStateResidencyTicks::UNDEFINED 19069224091400                       # Cumulative time (in ticks) in various power states (Tick)
system.atomicCpu3.mmu.itb.rdAccesses                0                       # TLB accesses on read requests (Count)
system.atomicCpu3.mmu.itb.wrAccesses                0                       # TLB accesses on write requests (Count)
system.atomicCpu3.mmu.itb.rdMisses                  0                       # TLB misses on read requests (Count)
system.atomicCpu3.mmu.itb.wrMisses                  0                       # TLB misses on write requests (Count)
system.atomicCpu3.mmu.itb.walker.power_state.pwrStateResidencyTicks::UNDEFINED 19069224091400                       # Cumulative time (in ticks) in various power states (Tick)
system.atomicCpu3.power_state.pwrStateResidencyTicks::OFF 19069224091400                       # Cumulative time (in ticks) in various power states (Tick)
system.atomicCpu3.thread_0.numInsts                 0                       # Number of Instructions committed (Count)
system.atomicCpu3.thread_0.numOps                   0                       # Number of Ops committed (Count)
system.atomicCpu3.thread_0.numMemRefs               0                       # Number of Memory References (Count)
system.atomicCpu4.numCycles                         0                       # Number of cpu cycles simulated (Cycle)
system.atomicCpu4.numWorkItemsStarted               0                       # Number of work items this cpu started (Count)
system.atomicCpu4.numWorkItemsCompleted             0                       # Number of work items this cpu completed (Count)
system.atomicCpu4.exec_context.thread_0.numInsts            0                       # Number of instructions committed (Count)
system.atomicCpu4.exec_context.thread_0.numOps            0                       # Number of ops (including micro ops) committed (Count)
system.atomicCpu4.exec_context.thread_0.numIntAluAccesses            0                       # Number of integer alu accesses (Count)
system.atomicCpu4.exec_context.thread_0.numFpAluAccesses            0                       # Number of float alu accesses (Count)
system.atomicCpu4.exec_context.thread_0.numVecAluAccesses            0                       # Number of vector alu accesses (Count)
system.atomicCpu4.exec_context.thread_0.numCallsReturns            0                       # Number of times a function call or return occured (Count)
system.atomicCpu4.exec_context.thread_0.numCondCtrlInsts            0                       # Number of instructions that are conditional controls (Count)
system.atomicCpu4.exec_context.thread_0.numIntInsts            0                       # Number of integer instructions (Count)
system.atomicCpu4.exec_context.thread_0.numFpInsts            0                       # Number of float instructions (Count)
system.atomicCpu4.exec_context.thread_0.numVecInsts            0                       # Number of vector instructions (Count)
system.atomicCpu4.exec_context.thread_0.numIntRegReads            0                       # Number of times the integer registers were read (Count)
system.atomicCpu4.exec_context.thread_0.numIntRegWrites            0                       # Number of times the integer registers were written (Count)
system.atomicCpu4.exec_context.thread_0.numFpRegReads            0                       # Number of times the floating registers were read (Count)
system.atomicCpu4.exec_context.thread_0.numFpRegWrites            0                       # Number of times the floating registers were written (Count)
system.atomicCpu4.exec_context.thread_0.numVecRegReads            0                       # Number of times the vector registers were read (Count)
system.atomicCpu4.exec_context.thread_0.numVecRegWrites            0                       # Number of times the vector registers were written (Count)
system.atomicCpu4.exec_context.thread_0.numVecPredRegReads            0                       # Number of times the predicate registers were read (Count)
system.atomicCpu4.exec_context.thread_0.numVecPredRegWrites            0                       # Number of times the predicate registers were written (Count)
system.atomicCpu4.exec_context.thread_0.numMiscRegReads            0                       # Number of times the Misc registers were read (Count)
system.atomicCpu4.exec_context.thread_0.numMiscRegWrites            0                       # Number of times the Misc registers were written (Count)
system.atomicCpu4.exec_context.thread_0.numMemRefs            0                       # Number of memory refs (Count)
system.atomicCpu4.exec_context.thread_0.numLoadInsts            0                       # Number of load instructions (Count)
system.atomicCpu4.exec_context.thread_0.numStoreInsts            0                       # Number of store instructions (Count)
system.atomicCpu4.exec_context.thread_0.numIdleCycles            0                       # Number of idle cycles (Cycle)
system.atomicCpu4.exec_context.thread_0.numBusyCycles            0                       # Number of busy cycles (Cycle)
system.atomicCpu4.exec_context.thread_0.notIdleFraction            0                       # Percentage of non-idle cycles (Ratio)
system.atomicCpu4.exec_context.thread_0.idleFraction            1                       # Percentage of idle cycles (Ratio)
system.atomicCpu4.exec_context.thread_0.statExecutedInstType::No_OpClass            0                       # Class of executed instruction. (Count)
system.atomicCpu4.exec_context.thread_0.statExecutedInstType::IntAlu            0                       # Class of executed instruction. (Count)
system.atomicCpu4.exec_context.thread_0.statExecutedInstType::IntMult            0                       # Class of executed instruction. (Count)
system.atomicCpu4.exec_context.thread_0.statExecutedInstType::IntDiv            0                       # Class of executed instruction. (Count)
system.atomicCpu4.exec_context.thread_0.statExecutedInstType::FloatAdd            0                       # Class of executed instruction. (Count)
system.atomicCpu4.exec_context.thread_0.statExecutedInstType::FloatCmp            0                       # Class of executed instruction. (Count)
system.atomicCpu4.exec_context.thread_0.statExecutedInstType::FloatCvt            0                       # Class of executed instruction. (Count)
system.atomicCpu4.exec_context.thread_0.statExecutedInstType::FloatMult            0                       # Class of executed instruction. (Count)
system.atomicCpu4.exec_context.thread_0.statExecutedInstType::FloatMultAcc            0                       # Class of executed instruction. (Count)
system.atomicCpu4.exec_context.thread_0.statExecutedInstType::FloatDiv            0                       # Class of executed instruction. (Count)
system.atomicCpu4.exec_context.thread_0.statExecutedInstType::FloatMisc            0                       # Class of executed instruction. (Count)
system.atomicCpu4.exec_context.thread_0.statExecutedInstType::FloatSqrt            0                       # Class of executed instruction. (Count)
system.atomicCpu4.exec_context.thread_0.statExecutedInstType::SimdAdd            0                       # Class of executed instruction. (Count)
system.atomicCpu4.exec_context.thread_0.statExecutedInstType::SimdAddAcc            0                       # Class of executed instruction. (Count)
system.atomicCpu4.exec_context.thread_0.statExecutedInstType::SimdAlu            0                       # Class of executed instruction. (Count)
system.atomicCpu4.exec_context.thread_0.statExecutedInstType::SimdCmp            0                       # Class of executed instruction. (Count)
system.atomicCpu4.exec_context.thread_0.statExecutedInstType::SimdCvt            0                       # Class of executed instruction. (Count)
system.atomicCpu4.exec_context.thread_0.statExecutedInstType::SimdMisc            0                       # Class of executed instruction. (Count)
system.atomicCpu4.exec_context.thread_0.statExecutedInstType::SimdMult            0                       # Class of executed instruction. (Count)
system.atomicCpu4.exec_context.thread_0.statExecutedInstType::SimdMultAcc            0                       # Class of executed instruction. (Count)
system.atomicCpu4.exec_context.thread_0.statExecutedInstType::SimdShift            0                       # Class of executed instruction. (Count)
system.atomicCpu4.exec_context.thread_0.statExecutedInstType::SimdShiftAcc            0                       # Class of executed instruction. (Count)
system.atomicCpu4.exec_context.thread_0.statExecutedInstType::SimdDiv            0                       # Class of executed instruction. (Count)
system.atomicCpu4.exec_context.thread_0.statExecutedInstType::SimdSqrt            0                       # Class of executed instruction. (Count)
system.atomicCpu4.exec_context.thread_0.statExecutedInstType::SimdFloatAdd            0                       # Class of executed instruction. (Count)
system.atomicCpu4.exec_context.thread_0.statExecutedInstType::SimdFloatAlu            0                       # Class of executed instruction. (Count)
system.atomicCpu4.exec_context.thread_0.statExecutedInstType::SimdFloatCmp            0                       # Class of executed instruction. (Count)
system.atomicCpu4.exec_context.thread_0.statExecutedInstType::SimdFloatCvt            0                       # Class of executed instruction. (Count)
system.atomicCpu4.exec_context.thread_0.statExecutedInstType::SimdFloatDiv            0                       # Class of executed instruction. (Count)
system.atomicCpu4.exec_context.thread_0.statExecutedInstType::SimdFloatMisc            0                       # Class of executed instruction. (Count)
system.atomicCpu4.exec_context.thread_0.statExecutedInstType::SimdFloatMult            0                       # Class of executed instruction. (Count)
system.atomicCpu4.exec_context.thread_0.statExecutedInstType::SimdFloatMultAcc            0                       # Class of executed instruction. (Count)
system.atomicCpu4.exec_context.thread_0.statExecutedInstType::SimdFloatSqrt            0                       # Class of executed instruction. (Count)
system.atomicCpu4.exec_context.thread_0.statExecutedInstType::SimdReduceAdd            0                       # Class of executed instruction. (Count)
system.atomicCpu4.exec_context.thread_0.statExecutedInstType::SimdReduceAlu            0                       # Class of executed instruction. (Count)
system.atomicCpu4.exec_context.thread_0.statExecutedInstType::SimdReduceCmp            0                       # Class of executed instruction. (Count)
system.atomicCpu4.exec_context.thread_0.statExecutedInstType::SimdFloatReduceAdd            0                       # Class of executed instruction. (Count)
system.atomicCpu4.exec_context.thread_0.statExecutedInstType::SimdFloatReduceCmp            0                       # Class of executed instruction. (Count)
system.atomicCpu4.exec_context.thread_0.statExecutedInstType::SimdAes            0                       # Class of executed instruction. (Count)
system.atomicCpu4.exec_context.thread_0.statExecutedInstType::SimdAesMix            0                       # Class of executed instruction. (Count)
system.atomicCpu4.exec_context.thread_0.statExecutedInstType::SimdSha1Hash            0                       # Class of executed instruction. (Count)
system.atomicCpu4.exec_context.thread_0.statExecutedInstType::SimdSha1Hash2            0                       # Class of executed instruction. (Count)
system.atomicCpu4.exec_context.thread_0.statExecutedInstType::SimdSha256Hash            0                       # Class of executed instruction. (Count)
system.atomicCpu4.exec_context.thread_0.statExecutedInstType::SimdSha256Hash2            0                       # Class of executed instruction. (Count)
system.atomicCpu4.exec_context.thread_0.statExecutedInstType::SimdShaSigma2            0                       # Class of executed instruction. (Count)
system.atomicCpu4.exec_context.thread_0.statExecutedInstType::SimdShaSigma3            0                       # Class of executed instruction. (Count)
system.atomicCpu4.exec_context.thread_0.statExecutedInstType::SimdPredAlu            0                       # Class of executed instruction. (Count)
system.atomicCpu4.exec_context.thread_0.statExecutedInstType::MemRead            0                       # Class of executed instruction. (Count)
system.atomicCpu4.exec_context.thread_0.statExecutedInstType::MemWrite            0                       # Class of executed instruction. (Count)
system.atomicCpu4.exec_context.thread_0.statExecutedInstType::FloatMemRead            0                       # Class of executed instruction. (Count)
system.atomicCpu4.exec_context.thread_0.statExecutedInstType::FloatMemWrite            0                       # Class of executed instruction. (Count)
system.atomicCpu4.exec_context.thread_0.statExecutedInstType::IprAccess            0                       # Class of executed instruction. (Count)
system.atomicCpu4.exec_context.thread_0.statExecutedInstType::InstPrefetch            0                       # Class of executed instruction. (Count)
system.atomicCpu4.exec_context.thread_0.statExecutedInstType::total            0                       # Class of executed instruction. (Count)
system.atomicCpu4.mmu.dtb.rdAccesses                0                       # TLB accesses on read requests (Count)
system.atomicCpu4.mmu.dtb.wrAccesses                0                       # TLB accesses on write requests (Count)
system.atomicCpu4.mmu.dtb.rdMisses                  0                       # TLB misses on read requests (Count)
system.atomicCpu4.mmu.dtb.wrMisses                  0                       # TLB misses on write requests (Count)
system.atomicCpu4.mmu.dtb.walker.power_state.pwrStateResidencyTicks::UNDEFINED 19069224091400                       # Cumulative time (in ticks) in various power states (Tick)
system.atomicCpu4.mmu.itb.rdAccesses                0                       # TLB accesses on read requests (Count)
system.atomicCpu4.mmu.itb.wrAccesses                0                       # TLB accesses on write requests (Count)
system.atomicCpu4.mmu.itb.rdMisses                  0                       # TLB misses on read requests (Count)
system.atomicCpu4.mmu.itb.wrMisses                  0                       # TLB misses on write requests (Count)
system.atomicCpu4.mmu.itb.walker.power_state.pwrStateResidencyTicks::UNDEFINED 19069224091400                       # Cumulative time (in ticks) in various power states (Tick)
system.atomicCpu4.power_state.pwrStateResidencyTicks::OFF 19069224091400                       # Cumulative time (in ticks) in various power states (Tick)
system.atomicCpu4.thread_0.numInsts                 0                       # Number of Instructions committed (Count)
system.atomicCpu4.thread_0.numOps                   0                       # Number of Ops committed (Count)
system.atomicCpu4.thread_0.numMemRefs               0                       # Number of Memory References (Count)
system.atomicCpu5.numCycles                         0                       # Number of cpu cycles simulated (Cycle)
system.atomicCpu5.numWorkItemsStarted               0                       # Number of work items this cpu started (Count)
system.atomicCpu5.numWorkItemsCompleted             0                       # Number of work items this cpu completed (Count)
system.atomicCpu5.exec_context.thread_0.numInsts            0                       # Number of instructions committed (Count)
system.atomicCpu5.exec_context.thread_0.numOps            0                       # Number of ops (including micro ops) committed (Count)
system.atomicCpu5.exec_context.thread_0.numIntAluAccesses            0                       # Number of integer alu accesses (Count)
system.atomicCpu5.exec_context.thread_0.numFpAluAccesses            0                       # Number of float alu accesses (Count)
system.atomicCpu5.exec_context.thread_0.numVecAluAccesses            0                       # Number of vector alu accesses (Count)
system.atomicCpu5.exec_context.thread_0.numCallsReturns            0                       # Number of times a function call or return occured (Count)
system.atomicCpu5.exec_context.thread_0.numCondCtrlInsts            0                       # Number of instructions that are conditional controls (Count)
system.atomicCpu5.exec_context.thread_0.numIntInsts            0                       # Number of integer instructions (Count)
system.atomicCpu5.exec_context.thread_0.numFpInsts            0                       # Number of float instructions (Count)
system.atomicCpu5.exec_context.thread_0.numVecInsts            0                       # Number of vector instructions (Count)
system.atomicCpu5.exec_context.thread_0.numIntRegReads            0                       # Number of times the integer registers were read (Count)
system.atomicCpu5.exec_context.thread_0.numIntRegWrites            0                       # Number of times the integer registers were written (Count)
system.atomicCpu5.exec_context.thread_0.numFpRegReads            0                       # Number of times the floating registers were read (Count)
system.atomicCpu5.exec_context.thread_0.numFpRegWrites            0                       # Number of times the floating registers were written (Count)
system.atomicCpu5.exec_context.thread_0.numVecRegReads            0                       # Number of times the vector registers were read (Count)
system.atomicCpu5.exec_context.thread_0.numVecRegWrites            0                       # Number of times the vector registers were written (Count)
system.atomicCpu5.exec_context.thread_0.numVecPredRegReads            0                       # Number of times the predicate registers were read (Count)
system.atomicCpu5.exec_context.thread_0.numVecPredRegWrites            0                       # Number of times the predicate registers were written (Count)
system.atomicCpu5.exec_context.thread_0.numMiscRegReads            0                       # Number of times the Misc registers were read (Count)
system.atomicCpu5.exec_context.thread_0.numMiscRegWrites            0                       # Number of times the Misc registers were written (Count)
system.atomicCpu5.exec_context.thread_0.numMemRefs            0                       # Number of memory refs (Count)
system.atomicCpu5.exec_context.thread_0.numLoadInsts            0                       # Number of load instructions (Count)
system.atomicCpu5.exec_context.thread_0.numStoreInsts            0                       # Number of store instructions (Count)
system.atomicCpu5.exec_context.thread_0.numIdleCycles            0                       # Number of idle cycles (Cycle)
system.atomicCpu5.exec_context.thread_0.numBusyCycles            0                       # Number of busy cycles (Cycle)
system.atomicCpu5.exec_context.thread_0.notIdleFraction            0                       # Percentage of non-idle cycles (Ratio)
system.atomicCpu5.exec_context.thread_0.idleFraction            1                       # Percentage of idle cycles (Ratio)
system.atomicCpu5.exec_context.thread_0.statExecutedInstType::No_OpClass            0                       # Class of executed instruction. (Count)
system.atomicCpu5.exec_context.thread_0.statExecutedInstType::IntAlu            0                       # Class of executed instruction. (Count)
system.atomicCpu5.exec_context.thread_0.statExecutedInstType::IntMult            0                       # Class of executed instruction. (Count)
system.atomicCpu5.exec_context.thread_0.statExecutedInstType::IntDiv            0                       # Class of executed instruction. (Count)
system.atomicCpu5.exec_context.thread_0.statExecutedInstType::FloatAdd            0                       # Class of executed instruction. (Count)
system.atomicCpu5.exec_context.thread_0.statExecutedInstType::FloatCmp            0                       # Class of executed instruction. (Count)
system.atomicCpu5.exec_context.thread_0.statExecutedInstType::FloatCvt            0                       # Class of executed instruction. (Count)
system.atomicCpu5.exec_context.thread_0.statExecutedInstType::FloatMult            0                       # Class of executed instruction. (Count)
system.atomicCpu5.exec_context.thread_0.statExecutedInstType::FloatMultAcc            0                       # Class of executed instruction. (Count)
system.atomicCpu5.exec_context.thread_0.statExecutedInstType::FloatDiv            0                       # Class of executed instruction. (Count)
system.atomicCpu5.exec_context.thread_0.statExecutedInstType::FloatMisc            0                       # Class of executed instruction. (Count)
system.atomicCpu5.exec_context.thread_0.statExecutedInstType::FloatSqrt            0                       # Class of executed instruction. (Count)
system.atomicCpu5.exec_context.thread_0.statExecutedInstType::SimdAdd            0                       # Class of executed instruction. (Count)
system.atomicCpu5.exec_context.thread_0.statExecutedInstType::SimdAddAcc            0                       # Class of executed instruction. (Count)
system.atomicCpu5.exec_context.thread_0.statExecutedInstType::SimdAlu            0                       # Class of executed instruction. (Count)
system.atomicCpu5.exec_context.thread_0.statExecutedInstType::SimdCmp            0                       # Class of executed instruction. (Count)
system.atomicCpu5.exec_context.thread_0.statExecutedInstType::SimdCvt            0                       # Class of executed instruction. (Count)
system.atomicCpu5.exec_context.thread_0.statExecutedInstType::SimdMisc            0                       # Class of executed instruction. (Count)
system.atomicCpu5.exec_context.thread_0.statExecutedInstType::SimdMult            0                       # Class of executed instruction. (Count)
system.atomicCpu5.exec_context.thread_0.statExecutedInstType::SimdMultAcc            0                       # Class of executed instruction. (Count)
system.atomicCpu5.exec_context.thread_0.statExecutedInstType::SimdShift            0                       # Class of executed instruction. (Count)
system.atomicCpu5.exec_context.thread_0.statExecutedInstType::SimdShiftAcc            0                       # Class of executed instruction. (Count)
system.atomicCpu5.exec_context.thread_0.statExecutedInstType::SimdDiv            0                       # Class of executed instruction. (Count)
system.atomicCpu5.exec_context.thread_0.statExecutedInstType::SimdSqrt            0                       # Class of executed instruction. (Count)
system.atomicCpu5.exec_context.thread_0.statExecutedInstType::SimdFloatAdd            0                       # Class of executed instruction. (Count)
system.atomicCpu5.exec_context.thread_0.statExecutedInstType::SimdFloatAlu            0                       # Class of executed instruction. (Count)
system.atomicCpu5.exec_context.thread_0.statExecutedInstType::SimdFloatCmp            0                       # Class of executed instruction. (Count)
system.atomicCpu5.exec_context.thread_0.statExecutedInstType::SimdFloatCvt            0                       # Class of executed instruction. (Count)
system.atomicCpu5.exec_context.thread_0.statExecutedInstType::SimdFloatDiv            0                       # Class of executed instruction. (Count)
system.atomicCpu5.exec_context.thread_0.statExecutedInstType::SimdFloatMisc            0                       # Class of executed instruction. (Count)
system.atomicCpu5.exec_context.thread_0.statExecutedInstType::SimdFloatMult            0                       # Class of executed instruction. (Count)
[...]
system.timingCpu6.exec_context.thread_0.statExecutedInstType::SimdFloatMultAcc            0      0.00%     74.22% # Class of executed instruction. (Count)
system.timingCpu6.exec_context.thread_0.statExecutedInstType::SimdFloatSqrt       258946      1.92%     76.14% # Class of executed instruction. (Count)
system.timingCpu6.exec_context.thread_0.statExecutedInstType::SimdReduceAdd            0      0.00%     76.14% # Class of executed instruction. (Count)
system.timingCpu6.exec_context.thread_0.statExecutedInstType::SimdReduceAlu            0      0.00%     76.14% # Class of executed instruction. (Count)
system.timingCpu6.exec_context.thread_0.statExecutedInstType::SimdReduceCmp            0      0.00%     76.14% # Class of executed instruction. (Count)
system.timingCpu6.exec_context.thread_0.statExecutedInstType::SimdFloatReduceAdd            0      0.00%     76.14% # Class of executed instruction. (Count)
system.timingCpu6.exec_context.thread_0.statExecutedInstType::SimdFloatReduceCmp            0      0.00%     76.14% # Class of executed instruction. (Count)
system.timingCpu6.exec_context.thread_0.statExecutedInstType::SimdAes            0      0.00%     76.14% # Class of executed instruction. (Count)
system.timingCpu6.exec_context.thread_0.statExecutedInstType::SimdAesMix            0      0.00%     76.14% # Class of executed instruction. (Count)
system.timingCpu6.exec_context.thread_0.statExecutedInstType::SimdSha1Hash            0      0.00%     76.14% # Class of executed instruction. (Count)
system.timingCpu6.exec_context.thread_0.statExecutedInstType::SimdSha1Hash2            0      0.00%     76.14% # Class of executed instruction. (Count)
system.timingCpu6.exec_context.thread_0.statExecutedInstType::SimdSha256Hash            0      0.00%     76.14% # Class of executed instruction. (Count)
system.timingCpu6.exec_context.thread_0.statExecutedInstType::SimdSha256Hash2            0      0.00%     76.14% # Class of executed instruction. (Count)
system.timingCpu6.exec_context.thread_0.statExecutedInstType::SimdShaSigma2            0      0.00%     76.14% # Class of executed instruction. (Count)
system.timingCpu6.exec_context.thread_0.statExecutedInstType::SimdShaSigma3            0      0.00%     76.14% # Class of executed instruction. (Count)
system.timingCpu6.exec_context.thread_0.statExecutedInstType::SimdPredAlu            0      0.00%     76.14% # Class of executed instruction. (Count)
system.timingCpu6.exec_context.thread_0.statExecutedInstType::MemRead        69040      0.51%     76.65% # Class of executed instruction. (Count)
system.timingCpu6.exec_context.thread_0.statExecutedInstType::MemWrite        34121      0.25%     76.91% # Class of executed instruction. (Count)
system.timingCpu6.exec_context.thread_0.statExecutedInstType::FloatMemRead      1294731      9.62%     86.53% # Class of executed instruction. (Count)
system.timingCpu6.exec_context.thread_0.statExecutedInstType::FloatMemWrite      1812624     13.47%    100.00% # Class of executed instruction. (Count)
system.timingCpu6.exec_context.thread_0.statExecutedInstType::IprAccess            0      0.00%    100.00% # Class of executed instruction. (Count)
system.timingCpu6.exec_context.thread_0.statExecutedInstType::InstPrefetch            0      0.00%    100.00% # Class of executed instruction. (Count)
system.timingCpu6.exec_context.thread_0.statExecutedInstType::total     13455547                       # Class of executed instruction. (Count)
system.timingCpu6.mmu.dtb.rdAccesses          1365678                       # TLB accesses on read requests (Count)
system.timingCpu6.mmu.dtb.wrAccesses          1847659                       # TLB accesses on write requests (Count)
system.timingCpu6.mmu.dtb.rdMisses               1906                       # TLB misses on read requests (Count)
system.timingCpu6.mmu.dtb.wrMisses                914                       # TLB misses on write requests (Count)
system.timingCpu6.mmu.dtb.walker.power_state.pwrStateResidencyTicks::UNDEFINED 19069224091400                       # Cumulative time (in ticks) in various power states (Tick)
system.timingCpu6.mmu.itb.rdAccesses                0                       # TLB accesses on read requests (Count)
system.timingCpu6.mmu.itb.wrAccesses         13502879                       # TLB accesses on write requests (Count)
system.timingCpu6.mmu.itb.rdMisses                  0                       # TLB misses on read requests (Count)
system.timingCpu6.mmu.itb.wrMisses                207                       # TLB misses on write requests (Count)
system.timingCpu6.mmu.itb.walker.power_state.pwrStateResidencyTicks::UNDEFINED 19069224091400                       # Cumulative time (in ticks) in various power states (Tick)
system.timingCpu6.power_state.pwrStateResidencyTicks::OFF 19069224091400                       # Cumulative time (in ticks) in various power states (Tick)
system.timingCpu6.thread_0.numInsts                 0                       # Number of Instructions committed (Count)
system.timingCpu6.thread_0.numOps                   0                       # Number of Ops committed (Count)
system.timingCpu6.thread_0.numMemRefs               0                       # Number of Memory References (Count)
system.timingCpu7.numCycles                 499998894                       # Number of cpu cycles simulated (Cycle)
system.timingCpu7.numWorkItemsStarted               0                       # Number of work items this cpu started (Count)
system.timingCpu7.numWorkItemsCompleted             0                       # Number of work items this cpu completed (Count)
system.timingCpu7.exec_context.thread_0.numInsts      9500343                       # Number of instructions committed (Count)
system.timingCpu7.exec_context.thread_0.numOps     13364725                       # Number of ops (including micro ops) committed (Count)
system.timingCpu7.exec_context.thread_0.numIntAluAccesses      5616440                       # Number of integer alu accesses (Count)
system.timingCpu7.exec_context.thread_0.numFpAluAccesses     10823411                       # Number of float alu accesses (Count)
system.timingCpu7.exec_context.thread_0.numVecAluAccesses            0                       # Number of vector alu accesses (Count)
system.timingCpu7.exec_context.thread_0.numCallsReturns        15108                       # Number of times a function call or return occured (Count)
system.timingCpu7.exec_context.thread_0.numCondCtrlInsts       288033                       # Number of instructions that are conditional controls (Count)
system.timingCpu7.exec_context.thread_0.numIntInsts      5616440                       # Number of integer instructions (Count)
system.timingCpu7.exec_context.thread_0.numFpInsts     10823411                       # Number of float instructions (Count)
system.timingCpu7.exec_context.thread_0.numVecInsts            0                       # Number of vector instructions (Count)
system.timingCpu7.exec_context.thread_0.numIntRegReads      5741672                       # Number of times the integer registers were read (Count)
system.timingCpu7.exec_context.thread_0.numIntRegWrites      1898273                       # Number of times the integer registers were written (Count)
system.timingCpu7.exec_context.thread_0.numFpRegReads     19069817                       # Number of times the floating registers were read (Count)
system.timingCpu7.exec_context.thread_0.numFpRegWrites      9019509                       # Number of times the floating registers were written (Count)
system.timingCpu7.exec_context.thread_0.numVecRegReads            0                       # Number of times the vector registers were read (Count)
system.timingCpu7.exec_context.thread_0.numVecRegWrites            0                       # Number of times the vector registers were written (Count)
system.timingCpu7.exec_context.thread_0.numVecPredRegReads            0                       # Number of times the predicate registers were read (Count)
system.timingCpu7.exec_context.thread_0.numVecPredRegWrites            0                       # Number of times the predicate registers were written (Count)
system.timingCpu7.exec_context.thread_0.numCCRegReads      1508872                       # Number of times the CC registers were read (Count)
system.timingCpu7.exec_context.thread_0.numCCRegWrites      1669042                       # Number of times the CC registers were written (Count)
system.timingCpu7.exec_context.thread_0.numMiscRegReads      3822993                       # Number of times the Misc registers were read (Count)
system.timingCpu7.exec_context.thread_0.numMiscRegWrites         3400                       # Number of times the Misc registers were written (Count)
system.timingCpu7.exec_context.thread_0.numMemRefs      3192762                       # Number of memory refs (Count)
system.timingCpu7.exec_context.thread_0.numLoadInsts      1354939                       # Number of load instructions (Count)
system.timingCpu7.exec_context.thread_0.numStoreInsts      1837823                       # Number of store instructions (Count)
system.timingCpu7.exec_context.thread_0.numIdleCycles            0                       # Number of idle cycles (Cycle)
system.timingCpu7.exec_context.thread_0.numBusyCycles    499998894                       # Number of busy cycles (Cycle)
system.timingCpu7.exec_context.thread_0.notIdleFraction            1                       # Percentage of non-idle cycles (Ratio)
system.timingCpu7.exec_context.thread_0.idleFraction            0                       # Percentage of idle cycles (Ratio)
system.timingCpu7.exec_context.thread_0.numBranches       313105                       # Number of branches fetched (Count)
system.timingCpu7.exec_context.thread_0.statExecutedInstType::No_OpClass         1999      0.01%      0.01% # Class of executed instruction. (Count)
system.timingCpu7.exec_context.thread_0.statExecutedInstType::IntAlu      5009509     37.48%     37.50% # Class of executed instruction. (Count)
system.timingCpu7.exec_context.thread_0.statExecutedInstType::IntMult         2253      0.02%     37.51% # Class of executed instruction. (Count)
system.timingCpu7.exec_context.thread_0.statExecutedInstType::IntDiv         4200      0.03%     37.55% # Class of executed instruction. (Count)
system.timingCpu7.exec_context.thread_0.statExecutedInstType::FloatAdd      1030801      7.71%     45.26% # Class of executed instruction. (Count)
system.timingCpu7.exec_context.thread_0.statExecutedInstType::FloatCmp            0      0.00%     45.26% # Class of executed instruction. (Count)
system.timingCpu7.exec_context.thread_0.statExecutedInstType::FloatCvt            0      0.00%     45.26% # Class of executed instruction. (Count)
system.timingCpu7.exec_context.thread_0.statExecutedInstType::FloatMult            0      0.00%     45.26% # Class of executed instruction. (Count)
system.timingCpu7.exec_context.thread_0.statExecutedInstType::FloatMultAcc            0      0.00%     45.26% # Class of executed instruction. (Count)
system.timingCpu7.exec_context.thread_0.statExecutedInstType::FloatDiv            0      0.00%     45.26% # Class of executed instruction. (Count)
system.timingCpu7.exec_context.thread_0.statExecutedInstType::FloatMisc            0      0.00%     45.26% # Class of executed instruction. (Count)
system.timingCpu7.exec_context.thread_0.statExecutedInstType::FloatSqrt            0      0.00%     45.26% # Class of executed instruction. (Count)
system.timingCpu7.exec_context.thread_0.statExecutedInstType::SimdAdd            0      0.00%     45.26% # Class of executed instruction. (Count)
system.timingCpu7.exec_context.thread_0.statExecutedInstType::SimdAddAcc            0      0.00%     45.26% # Class of executed instruction. (Count)
system.timingCpu7.exec_context.thread_0.statExecutedInstType::SimdAlu            0      0.00%     45.26% # Class of executed instruction. (Count)
system.timingCpu7.exec_context.thread_0.statExecutedInstType::SimdCmp            0      0.00%     45.26% # Class of executed instruction. (Count)
system.timingCpu7.exec_context.thread_0.statExecutedInstType::SimdCvt            0      0.00%     45.26% # Class of executed instruction. (Count)
system.timingCpu7.exec_context.thread_0.statExecutedInstType::SimdMisc            0      0.00%     45.26% # Class of executed instruction. (Count)
system.timingCpu7.exec_context.thread_0.statExecutedInstType::SimdMult            0      0.00%     45.26% # Class of executed instruction. (Count)
system.timingCpu7.exec_context.thread_0.statExecutedInstType::SimdMultAcc            0      0.00%     45.26% # Class of executed instruction. (Count)
system.timingCpu7.exec_context.thread_0.statExecutedInstType::SimdShift            0      0.00%     45.26% # Class of executed instruction. (Count)
system.timingCpu7.exec_context.thread_0.statExecutedInstType::SimdShiftAcc            0      0.00%     45.26% # Class of executed instruction. (Count)
system.timingCpu7.exec_context.thread_0.statExecutedInstType::SimdDiv            0      0.00%     45.26% # Class of executed instruction. (Count)
system.timingCpu7.exec_context.thread_0.statExecutedInstType::SimdSqrt            0      0.00%     45.26% # Class of executed instruction. (Count)
system.timingCpu7.exec_context.thread_0.statExecutedInstType::SimdFloatAdd       773100      5.78%     51.04% # Class of executed instruction. (Count)
system.timingCpu7.exec_context.thread_0.statExecutedInstType::SimdFloatAlu            0      0.00%     51.04% # Class of executed instruction. (Count)
system.timingCpu7.exec_context.thread_0.statExecutedInstType::SimdFloatCmp            0      0.00%     51.04% # Class of executed instruction. (Count)
system.timingCpu7.exec_context.thread_0.statExecutedInstType::SimdFloatCvt            0      0.00%     51.04% # Class of executed instruction. (Count)
system.timingCpu7.exec_context.thread_0.statExecutedInstType::SimdFloatDiv       257701      1.93%     52.97% # Class of executed instruction. (Count)
system.timingCpu7.exec_context.thread_0.statExecutedInstType::SimdFloatMisc            0      0.00%     52.97% # Class of executed instruction. (Count)
system.timingCpu7.exec_context.thread_0.statExecutedInstType::SimdFloatMult      2834700     21.21%     74.18% # Class of executed instruction. (Count)
system.timingCpu7.exec_context.thread_0.statExecutedInstType::SimdFloatMultAcc            0      0.00%     74.18% # Class of executed instruction. (Count)
system.timingCpu7.exec_context.thread_0.statExecutedInstType::SimdFloatSqrt       257700      1.93%     76.11% # Class of executed instruction. (Count)
system.timingCpu7.exec_context.thread_0.statExecutedInstType::SimdReduceAdd            0      0.00%     76.11% # Class of executed instruction. (Count)
system.timingCpu7.exec_context.thread_0.statExecutedInstType::SimdReduceAlu            0      0.00%     76.11% # Class of executed instruction. (Count)
system.timingCpu7.exec_context.thread_0.statExecutedInstType::SimdReduceCmp            0      0.00%     76.11% # Class of executed instruction. (Count)
system.timingCpu7.exec_context.thread_0.statExecutedInstType::SimdFloatReduceAdd            0      0.00%     76.11% # Class of executed instruction. (Count)
system.timingCpu7.exec_context.thread_0.statExecutedInstType::SimdFloatReduceCmp            0      0.00%     76.11% # Class of executed instruction. (Count)
system.timingCpu7.exec_context.thread_0.statExecutedInstType::SimdAes            0      0.00%     76.11% # Class of executed instruction. (Count)
system.timingCpu7.exec_context.thread_0.statExecutedInstType::SimdAesMix            0      0.00%     76.11% # Class of executed instruction. (Count)
system.timingCpu7.exec_context.thread_0.statExecutedInstType::SimdSha1Hash            0      0.00%     76.11% # Class of executed instruction. (Count)
system.timingCpu7.exec_context.thread_0.statExecutedInstType::SimdSha1Hash2            0      0.00%     76.11% # Class of executed instruction. (Count)
system.timingCpu7.exec_context.thread_0.statExecutedInstType::SimdSha256Hash            0      0.00%     76.11% # Class of executed instruction. (Count)
system.timingCpu7.exec_context.thread_0.statExecutedInstType::SimdSha256Hash2            0      0.00%     76.11% # Class of executed instruction. (Count)
system.timingCpu7.exec_context.thread_0.statExecutedInstType::SimdShaSigma2            0      0.00%     76.11% # Class of executed instruction. (Count)
system.timingCpu7.exec_context.thread_0.statExecutedInstType::SimdShaSigma3            0      0.00%     76.11% # Class of executed instruction. (Count)
system.timingCpu7.exec_context.thread_0.statExecutedInstType::SimdPredAlu            0      0.00%     76.11% # Class of executed instruction. (Count)
system.timingCpu7.exec_context.thread_0.statExecutedInstType::MemRead        66438      0.50%     76.61% # Class of executed instruction. (Count)
system.timingCpu7.exec_context.thread_0.statExecutedInstType::MemWrite        33921      0.25%     76.86% # Class of executed instruction. (Count)
system.timingCpu7.exec_context.thread_0.statExecutedInstType::FloatMemRead      1288501      9.64%     86.50% # Class of executed instruction. (Count)
system.timingCpu7.exec_context.thread_0.statExecutedInstType::FloatMemWrite      1803902     13.50%    100.00% # Class of executed instruction. (Count)
system.timingCpu7.exec_context.thread_0.statExecutedInstType::IprAccess            0      0.00%    100.00% # Class of executed instruction. (Count)
system.timingCpu7.exec_context.thread_0.statExecutedInstType::InstPrefetch            0      0.00%    100.00% # Class of executed instruction. (Count)
system.timingCpu7.exec_context.thread_0.statExecutedInstType::total     13364725                       # Class of executed instruction. (Count)
system.timingCpu7.mmu.dtb.rdAccesses          1356646                       # TLB accesses on read requests (Count)
system.timingCpu7.mmu.dtb.wrAccesses          1838737                       # TLB accesses on write requests (Count)
system.timingCpu7.mmu.dtb.rdMisses               1706                       # TLB misses on read requests (Count)
system.timingCpu7.mmu.dtb.wrMisses                914                       # TLB misses on write requests (Count)
system.timingCpu7.mmu.dtb.walker.power_state.pwrStateResidencyTicks::UNDEFINED 19069224091400                       # Cumulative time (in ticks) in various power states (Tick)
system.timingCpu7.mmu.itb.rdAccesses                0                       # TLB accesses on read requests (Count)
system.timingCpu7.mmu.itb.wrAccesses         13424621                       # TLB accesses on write requests (Count)
system.timingCpu7.mmu.itb.rdMisses                  0                       # TLB misses on read requests (Count)
system.timingCpu7.mmu.itb.wrMisses                207                       # TLB misses on write requests (Count)
system.timingCpu7.mmu.itb.walker.power_state.pwrStateResidencyTicks::UNDEFINED 19069224091400                       # Cumulative time (in ticks) in various power states (Tick)
system.timingCpu7.power_state.pwrStateResidencyTicks::OFF 19069224091400                       # Cumulative time (in ticks) in various power states (Tick)
system.timingCpu7.thread_0.numInsts                 0                       # Number of Instructions committed (Count)
system.timingCpu7.thread_0.numOps                   0                       # Number of Ops committed (Count)
system.timingCpu7.thread_0.numMemRefs               0                       # Number of Memory References (Count)
system.workload.inst.arm                            0                       # number of arm instructions executed (Count)
system.workload.inst.quiesce                        0                       # number of quiesce instructions executed (Count)

---------- End Simulation Statistics   ----------
