
---------- Begin Simulation Statistics ----------
simSeconds                                          5                       # Number of seconds simulated (Second)
simTicks                                 5000000000000                       # Number of ticks simulated (Tick)
finalTick                                153149273673500                       # Number of ticks from beginning of simulation (restored from checkpoints and never reset) (Tick)
simFreq                                  1000000000000                       # The number of ticks per simulated second ((Tick/Second))
hostSeconds                                  33709.64                       # Real time elapsed on the host (Second)
hostTickRate                                148325526                       # The number of ticks simulated per host second (ticks/s) ((Tick/Second))
hostMemory                                    9478484                       # Number of bytes of host memory used (Byte)
simInsts                                  49988732231                       # Number of instructions simulated (Count)
simOps                                    58207873873                       # Number of ops (including micro ops) simulated (Count)
hostInstRate                                  1482921                       # Simulator instruction rate (inst/s) ((Count/Second))
hostOpRate                                    1726743                       # Simulator op (including micro ops) rate (op/s) ((Count/Second))
system.atomicCpu0.numCycles                         0                       # Number of cpu cycles simulated (Cycle)
system.atomicCpu0.numWorkItemsStarted               0                       # Number of work items this cpu started (Count)
system.atomicCpu0.numWorkItemsCompleted             0                       # Number of work items this cpu completed (Count)
system.atomicCpu0.exec_context.thread_0.numInsts            0                       # Number of instructions committed (Count)
system.atomicCpu0.exec_context.thread_0.numOps            0                       # Number of ops (including micro ops) committed (Count)
system.atomicCpu0.exec_context.thread_0.numIntAluAccesses            0                       # Number of integer alu accesses (Count)
system.atomicCpu0.exec_context.thread_0.numFpAluAccesses            0                       # Number of float alu accesses (Count)
system.atomicCpu0.exec_context.thread_0.numVecAluAccesses            0                       # Number of vector alu accesses (Count)
system.atomicCpu0.exec_context.thread_0.numCallsReturns            0                       # Number of times a function call or return occured (Count)
system.atomicCpu0.exec_context.thread_0.numCondCtrlInsts            0                       # Number of instructions that are conditional controls (Count)
system.atomicCpu0.exec_context.thread_0.numIntInsts            0                       # Number of integer instructions (Count)
system.atomicCpu0.exec_context.thread_0.numFpInsts            0                       # Number of float instructions (Count)
system.atomicCpu0.exec_context.thread_0.numVecInsts            0                       # Number of vector instructions (Count)
system.atomicCpu0.exec_context.thread_0.numIntRegReads            0                       # Number of times the integer registers were read (Count)
system.atomicCpu0.exec_context.thread_0.numIntRegWrites            0                       # Number of times the integer registers were written (Count)
system.atomicCpu0.exec_context.thread_0.numFpRegReads            0                       # Number of times the floating registers were read (Count)
system.atomicCpu0.exec_context.thread_0.numFpRegWrites            0                       # Number of times the floating registers were written (Count)
system.atomicCpu0.exec_context.thread_0.numVecRegReads            0                       # Number of times the vector registers were read (Count)
system.atomicCpu0.exec_context.thread_0.numVecRegWrites            0                       # Number of times the vector registers were written (Count)
system.atomicCpu0.exec_context.thread_0.numVecPredRegReads            0                       # Number of times the predicate registers were read (Count)
system.atomicCpu0.exec_context.thread_0.numVecPredRegWrites            0                       # Number of times the predicate registers were written (Count)
system.atomicCpu0.exec_context.thread_0.numMiscRegReads            0                       # Number of times the Misc registers were read (Count)
system.atomicCpu0.exec_context.thread_0.numMiscRegWrites            0                       # Number of times the Misc registers were written (Count)
system.atomicCpu0.exec_context.thread_0.numMemRefs            0                       # Number of memory refs (Count)
system.atomicCpu0.exec_context.thread_0.numLoadInsts            0                       # Number of load instructions (Count)
system.atomicCpu0.exec_context.thread_0.numStoreInsts            0                       # Number of store instructions (Count)
system.atomicCpu0.exec_context.thread_0.numIdleCycles            0                       # Number of idle cycles (Cycle)
system.atomicCpu0.exec_context.thread_0.numBusyCycles            0                       # Number of busy cycles (Cycle)
system.atomicCpu0.exec_context.thread_0.notIdleFraction            0                       # Percentage of non-idle cycles (Ratio)
system.atomicCpu0.exec_context.thread_0.idleFraction            1                       # Percentage of idle cycles (Ratio)
system.atomicCpu0.exec_context.thread_0.statExecutedInstType::No_OpClass            0                       # Class of executed instruction. (Count)
system.atomicCpu0.exec_context.thread_0.statExecutedInstType::IntAlu            0                       # Class of executed instruction. (Count)
system.atomicCpu0.exec_context.thread_0.statExecutedInstType::IntMult            0                       # Class of executed instruction. (Count)
system.atomicCpu0.exec_context.thread_0.statExecutedInstType::IntDiv            0                       # Class of executed instruction. (Count)
system.atomicCpu0.exec_context.thread_0.statExecutedInstType::FloatAdd            0                       # Class of executed instruction. (Count)
system.atomicCpu0.exec_context.thread_0.statExecutedInstType::FloatCmp            0                       # Class of executed instruction. (Count)
system.atomicCpu0.exec_context.thread_0.statExecutedInstType::FloatCvt            0                       # Class of executed instruction. (Count)
system.atomicCpu0.exec_context.thread_0.statExecutedInstType::FloatMult            0                       # Class of executed instruction. (Count)
system.atomicCpu0.exec_context.thread_0.statExecutedInstType::FloatMultAcc            0                       # Class of executed instruction. (Count)
system.atomicCpu0.exec_context.thread_0.statExecutedInstType::FloatDiv            0                       # Class of executed instruction. (Count)
system.atomicCpu0.exec_context.thread_0.statExecutedInstType::FloatMisc            0                       # Class of executed instruction. (Count)
system.atomicCpu0.exec_context.thread_0.statExecutedInstType::FloatSqrt            0                       # Class of executed instruction. (Count)
system.atomicCpu0.exec_context.thread_0.statExecutedInstType::SimdAdd            0                       # Class of executed instruction. (Count)
system.atomicCpu0.exec_context.thread_0.statExecutedInstType::SimdAddAcc            0                       # Class of executed instruction. (Count)
system.atomicCpu0.exec_context.thread_0.statExecutedInstType::SimdAlu            0                       # Class of executed instruction. (Count)
system.atomicCpu0.exec_context.thread_0.statExecutedInstType::SimdCmp            0                       # Class of executed instruction. (Count)
system.atomicCpu0.exec_context.thread_0.statExecutedInstType::SimdCvt            0                       # Class of executed instruction. (Count)
system.atomicCpu0.exec_context.thread_0.statExecutedInstType::SimdMisc            0                       # Class of executed instruction. (Count)
system.atomicCpu0.exec_context.thread_0.statExecutedInstType::SimdMult            0                       # Class of executed instruction. (Count)
system.atomicCpu0.exec_context.thread_0.statExecutedInstType::SimdMultAcc            0                       # Class of executed instruction. (Count)
system.atomicCpu0.exec_context.thread_0.statExecutedInstType::SimdShift            0                       # Class of executed instruction. (Count)
system.atomicCpu0.exec_context.thread_0.statExecutedInstType::SimdShiftAcc            0                       # Class of executed instruction. (Count)
system.atomicCpu0.exec_context.thread_0.statExecutedInstType::SimdDiv            0                       # Class of executed instruction. (Count)
system.atomicCpu0.exec_context.thread_0.statExecutedInstType::SimdSqrt            0                       # Class of executed instruction. (Count)
system.atomicCpu0.exec_context.thread_0.statExecutedInstType::SimdFloatAdd            0                       # Class of executed instruction. (Count)
system.atomicCpu0.exec_context.thread_0.statExecutedInstType::SimdFloatAlu            0                       # Class of executed instruction. (Count)
system.atomicCpu0.exec_context.thread_0.statExecutedInstType::SimdFloatCmp            0                       # Class of executed instruction. (Count)
system.atomicCpu0.exec_context.thread_0.statExecutedInstType::SimdFloatCvt            0                       # Class of executed instruction. (Count)
system.atomicCpu0.exec_context.thread_0.statExecutedInstType::SimdFloatDiv            0                       # Class of executed instruction. (Count)
system.atomicCpu0.exec_context.thread_0.statExecutedInstType::SimdFloatMisc            0                       # Class of executed instruction. (Count)
system.atomicCpu0.exec_context.thread_0.statExecutedInstType::SimdFloatMult            0                       # Class of executed instruction. (Count)
system.atomicCpu0.exec_context.thread_0.statExecutedInstType::SimdFloatMultAcc            0                       # Class of executed instruction. (Count)
system.atomicCpu0.exec_context.thread_0.statExecutedInstType::SimdFloatSqrt            0                       # Class of executed instruction. (Count)
system.atomicCpu0.exec_context.thread_0.statExecutedInstType::SimdReduceAdd            0                       # Class of executed instruction. (Count)
system.atomicCpu0.exec_context.thread_0.statExecutedInstType::SimdReduceAlu            0                       # Class of executed instruction. (Count)
system.atomicCpu0.exec_context.thread_0.statExecutedInstType::SimdReduceCmp            0                       # Class of executed instruction. (Count)
system.atomicCpu0.exec_context.thread_0.statExecutedInstType::SimdFloatReduceAdd            0                       # Class of executed instruction. (Count)
system.atomicCpu0.exec_context.thread_0.statExecutedInstType::SimdFloatReduceCmp            0                       # Class of executed instruction. (Count)
system.atomicCpu0.exec_context.thread_0.statExecutedInstType::SimdAes            0                       # Class of executed instruction. (Count)
system.atomicCpu0.exec_context.thread_0.statExecutedInstType::SimdAesMix            0                       # Class of executed instruction. (Count)
system.atomicCpu0.exec_context.thread_0.statExecutedInstType::SimdSha1Hash            0                       # Class of executed instruction. (Count)
system.atomicCpu0.exec_context.thread_0.statExecutedInstType::SimdSha1Hash2            0                       # Class of executed instruction. (Count)
system.atomicCpu0.exec_context.thread_0.statExecutedInstType::SimdSha256Hash            0                       # Class of executed instruction. (Count)
system.atomicCpu0.exec_context.thread_0.statExecutedInstType::SimdSha256Hash2            0                       # Class of executed instruction. (Count)
system.atomicCpu0.exec_context.thread_0.statExecutedInstType::SimdShaSigma2            0                       # Class of executed instruction. (Count)
system.atomicCpu0.exec_context.thread_0.statExecutedInstType::SimdShaSigma3            0                       # Class of executed instruction. (Count)
system.atomicCpu0.exec_context.thread_0.statExecutedInstType::SimdPredAlu            0                       # Class of executed instruction. (Count)
system.atomicCpu0.exec_context.thread_0.statExecutedInstType::MemRead            0                       # Class of executed instruction. (Count)
system.atomicCpu0.exec_context.thread_0.statExecutedInstType::MemWrite            0                       # Class of executed instruction. (Count)
system.atomicCpu0.exec_context.thread_0.statExecutedInstType::FloatMemRead            0                       # Class of executed instruction. (Count)
system.atomicCpu0.exec_context.thread_0.statExecutedInstType::FloatMemWrite            0                       # Class of executed instruction. (Count)
system.atomicCpu0.exec_context.thread_0.statExecutedInstType::IprAccess            0                       # Class of executed instruction. (Count)
system.atomicCpu0.exec_context.thread_0.statExecutedInstType::InstPrefetch            0                       # Class of executed instruction. (Count)
system.atomicCpu0.exec_context.thread_0.statExecutedInstType::total            0                       # Class of executed instruction. (Count)
system.atomicCpu0.mmu.dtb.rdAccesses                0                       # TLB accesses on read requests (Count)
system.atomicCpu0.mmu.dtb.wrAccesses                0                       # TLB accesses on write requests (Count)
system.atomicCpu0.mmu.dtb.rdMisses                  0                       # TLB misses on read requests (Count)
system.atomicCpu0.mmu.dtb.wrMisses                  0                       # TLB misses on write requests (Count)
system.atomicCpu0.mmu.dtb.walker.power_state.pwrStateResidencyTicks::UNDEFINED 153149273673500                       # Cumulative time (in ticks) in various power states (Tick)
system.atomicCpu0.mmu.itb.rdAccesses                0                       # TLB accesses on read requests (Count)
system.atomicCpu0.mmu.itb.wrAccesses                0                       # TLB accesses on write requests (Count)
system.atomicCpu0.mmu.itb.rdMisses                  0                       # TLB misses on read requests (Count)
system.atomicCpu0.mmu.itb.wrMisses                  0                       # TLB misses on write requests (Count)
system.atomicCpu0.mmu.itb.walker.power_state.pwrStateResidencyTicks::UNDEFINED 153149273673500                       # Cumulative time (in ticks) in various power states (Tick)
system.atomicCpu0.power_state.pwrStateResidencyTicks::OFF 153149273673500                       # Cumulative time (in ticks) in various power states (Tick)
system.atomicCpu0.thread_0.numInsts                 0                       # Number of Instructions committed (Count)
system.atomicCpu0.thread_0.numOps                   0                       # Number of Ops committed (Count)
system.atomicCpu0.thread_0.numMemRefs               0                       # Number of Memory References (Count)
system.atomicCpu1.numCycles                         0                       # Number of cpu cycles simulated (Cycle)
system.atomicCpu1.numWorkItemsStarted               0                       # Number of work items this cpu started (Count)
system.atomicCpu1.numWorkItemsCompleted             0                       # Number of work items this cpu completed (Count)
system.atomicCpu1.exec_context.thread_0.numInsts            0                       # Number of instructions committed (Count)
system.atomicCpu1.exec_context.thread_0.numOps            0                       # Number of ops (including micro ops) committed (Count)
system.atomicCpu1.exec_context.thread_0.numIntAluAccesses            0                       # Number of integer alu accesses (Count)
system.atomicCpu1.exec_context.thread_0.numFpAluAccesses            0                       # Number of float alu accesses (Count)
system.atomicCpu1.exec_context.thread_0.numVecAluAccesses            0                       # Number of vector alu accesses (Count)
system.atomicCpu1.exec_context.thread_0.numCallsReturns            0                       # Number of times a function call or return occured (Count)
system.atomicCpu1.exec_context.thread_0.numCondCtrlInsts            0                       # Number of instructions that are conditional controls (Count)
system.atomicCpu1.exec_context.thread_0.numIntInsts            0                       # Number of integer instructions (Count)
system.atomicCpu1.exec_context.thread_0.numFpInsts            0                       # Number of float instructions (Count)
system.atomicCpu1.exec_context.thread_0.numVecInsts            0                       # Number of vector instructions (Count)
system.atomicCpu1.exec_context.thread_0.numIntRegReads            0                       # Number of times the integer registers were read (Count)
system.atomicCpu1.exec_context.thread_0.numIntRegWrites            0                       # Number of times the integer registers were written (Count)
system.atomicCpu1.exec_context.thread_0.numFpRegReads            0                       # Number of times the floating registers were read (Count)
system.atomicCpu1.exec_context.thread_0.numFpRegWrites            0                       # Number of times the floating registers were written (Count)
system.atomicCpu1.exec_context.thread_0.numVecRegReads            0                       # Number of times the vector registers were read (Count)
system.atomicCpu1.exec_context.thread_0.numVecRegWrites            0                       # Number of times the vector registers were written (Count)
system.atomicCpu1.exec_context.thread_0.numVecPredRegReads            0                       # Number of times the predicate registers were read (Count)
system.atomicCpu1.exec_context.thread_0.numVecPredRegWrites            0                       # Number of times the predicate registers were written (Count)
system.atomicCpu1.exec_context.thread_0.numMiscRegReads            0                       # Number of times the Misc registers were read (Count)
system.atomicCpu1.exec_context.thread_0.numMiscRegWrites            0                       # Number of times the Misc registers were written (Count)
system.atomicCpu1.exec_context.thread_0.numMemRefs            0                       # Number of memory refs (Count)
system.atomicCpu1.exec_context.thread_0.numLoadInsts            0                       # Number of load instructions (Count)
system.atomicCpu1.exec_context.thread_0.numStoreInsts            0                       # Number of store instructions (Count)
system.atomicCpu1.exec_context.thread_0.numIdleCycles            0                       # Number of idle cycles (Cycle)
system.atomicCpu1.exec_context.thread_0.numBusyCycles            0                       # Number of busy cycles (Cycle)
system.atomicCpu1.exec_context.thread_0.notIdleFraction            0                       # Percentage of non-idle cycles (Ratio)
system.atomicCpu1.exec_context.thread_0.idleFraction            1                       # Percentage of idle cycles (Ratio)
system.atomicCpu1.exec_context.thread_0.statExecutedInstType::No_OpClass            0                       # Class of executed instruction. (Count)
system.atomicCpu1.exec_context.thread_0.statExecutedInstType::IntAlu            0                       # Class of executed instruction. (Count)
system.atomicCpu1.exec_context.thread_0.statExecutedInstType::IntMult            0                       # Class of executed instruction. (Count)
system.atomicCpu1.exec_context.thread_0.statExecutedInstType::IntDiv            0                       # Class of executed instruction. (Count)
system.atomicCpu1.exec_context.thread_0.statExecutedInstType::FloatAdd            0                       # Class of executed instruction. (Count)
system.atomicCpu1.exec_context.thread_0.statExecutedInstType::FloatCmp            0                       # Class of executed instruction. (Count)
system.atomicCpu1.exec_context.thread_0.statExecutedInstType::FloatCvt            0                       # Class of executed instruction. (Count)
system.atomicCpu1.exec_context.thread_0.statExecutedInstType::FloatMult            0                       # Class of executed instruction. (Count)
system.atomicCpu1.exec_context.thread_0.statExecutedInstType::FloatMultAcc            0                       # Class of executed instruction. (Count)
system.atomicCpu1.exec_context.thread_0.statExecutedInstType::FloatDiv            0                       # Class of executed instruction. (Count)
system.atomicCpu1.exec_context.thread_0.statExecutedInstType::FloatMisc            0                       # Class of executed instruction. (Count)
system.atomicCpu1.exec_context.thread_0.statExecutedInstType::FloatSqrt            0                       # Class of executed instruction. (Count)
system.atomicCpu1.exec_context.thread_0.statExecutedInstType::SimdAdd            0                       # Class of executed instruction. (Count)
system.atomicCpu1.exec_context.thread_0.statExecutedInstType::SimdAddAcc            0                       # Class of executed instruction. (Count)
system.atomicCpu1.exec_context.thread_0.statExecutedInstType::SimdAlu            0                       # Class of executed instruction. (Count)
system.atomicCpu1.exec_context.thread_0.statExecutedInstType::SimdCmp            0                       # Class of executed instruction. (Count)
system.atomicCpu1.exec_context.thread_0.statExecutedInstType::SimdCvt            0                       # Class of executed instruction. (Count)
system.atomicCpu1.exec_context.thread_0.statExecutedInstType::SimdMisc            0                       # Class of executed instruction. (Count)
system.atomicCpu1.exec_context.thread_0.statExecutedInstType::SimdMult            0                       # Class of executed instruction. (Count)
system.atomicCpu1.exec_context.thread_0.statExecutedInstType::SimdMultAcc            0                       # Class of executed instruction. (Count)
system.atomicCpu1.exec_context.thread_0.statExecutedInstType::SimdShift            0                       # Class of executed instruction. (Count)
system.atomicCpu1.exec_context.thread_0.statExecutedInstType::SimdShiftAcc            0                       # Class of executed instruction. (Count)
system.atomicCpu1.exec_context.thread_0.statExecutedInstType::SimdDiv            0                       # Class of executed instruction. (Count)
system.atomicCpu1.exec_context.thread_0.statExecutedInstType::SimdSqrt            0                       # Class of executed instruction. (Count)
system.atomicCpu1.exec_context.thread_0.statExecutedInstType::SimdFloatAdd            0                       # Class of executed instruction. (Count)
system.atomicCpu1.exec_context.thread_0.statExecutedInstType::SimdFloatAlu            0                       # Class of executed instruction. (Count)
system.atomicCpu1.exec_context.thread_0.statExecutedInstType::SimdFloatCmp            0                       # Class of executed instruction. (Count)
system.atomicCpu1.exec_context.thread_0.statExecutedInstType::SimdFloatCvt            0                       # Class of executed instruction. (Count)
system.atomicCpu1.exec_context.thread_0.statExecutedInstType::SimdFloatDiv            0                       # Class of executed instruction. (Count)
system.atomicCpu1.exec_context.thread_0.statExecutedInstType::SimdFloatMisc            0                       # Class of executed instruction. (Count)
system.atomicCpu1.exec_context.thread_0.statExecutedInstType::SimdFloatMult            0                       # Class of executed instruction. (Count)
system.atomicCpu1.exec_context.thread_0.statExecutedInstType::SimdFloatMultAcc            0                       # Class of executed instruction. (Count)
system.atomicCpu1.exec_context.thread_0.statExecutedInstType::SimdFloatSqrt            0                       # Class of executed instruction. (Count)
system.atomicCpu1.exec_context.thread_0.statExecutedInstType::SimdReduceAdd            0                       # Class of executed instruction. (Count)
system.atomicCpu1.exec_context.thread_0.statExecutedInstType::SimdReduceAlu            0                       # Class of executed instruction. (Count)
system.atomicCpu1.exec_context.thread_0.statExecutedInstType::SimdReduceCmp            0                       # Class of executed instruction. (Count)
system.atomicCpu1.exec_context.thread_0.statExecutedInstType::SimdFloatReduceAdd            0                       # Class of executed instruction. (Count)
system.atomicCpu1.exec_context.thread_0.statExecutedInstType::SimdFloatReduceCmp            0                       # Class of executed instruction. (Count)
system.atomicCpu1.exec_context.thread_0.statExecutedInstType::SimdAes            0                       # Class of executed instruction. (Count)
system.atomicCpu1.exec_context.thread_0.statExecutedInstType::SimdAesMix            0                       # Class of executed instruction. (Count)
system.atomicCpu1.exec_context.thread_0.statExecutedInstType::SimdSha1Hash            0                       # Class of executed instruction. (Count)
system.atomicCpu1.exec_context.thread_0.statExecutedInstType::SimdSha1Hash2            0                       # Class of executed instruction. (Count)
system.atomicCpu1.exec_context.thread_0.statExecutedInstType::SimdSha256Hash            0                       # Class of executed instruction. (Count)
system.atomicCpu1.exec_context.thread_0.statExecutedInstType::SimdSha256Hash2            0                       # Class of executed instruction. (Count)
system.atomicCpu1.exec_context.thread_0.statExecutedInstType::SimdShaSigma2            0                       # Class of executed instruction. (Count)
system.atomicCpu1.exec_context.thread_0.statExecutedInstType::SimdShaSigma3            0                       # Class of executed instruction. (Count)
system.atomicCpu1.exec_context.thread_0.statExecutedInstType::SimdPredAlu            0                       # Class of executed instruction. (Count)
system.atomicCpu1.exec_context.thread_0.statExecutedInstType::MemRead            0                       # Class of executed instruction. (Count)
system.atomicCpu1.exec_context.thread_0.statExecutedInstType::MemWrite            0                       # Class of executed instruction. (Count)
system.atomicCpu1.exec_context.thread_0.statExecutedInstType::FloatMemRead            0                       # Class of executed instruction. (Count)
system.atomicCpu1.exec_context.thread_0.statExecutedInstType::FloatMemWrite            0                       # Class of executed instruction. (Count)
system.atomicCpu1.exec_context.thread_0.statExecutedInstType::IprAccess            0                       # Class of executed instruction. (Count)
system.atomicCpu1.exec_context.thread_0.statExecutedInstType::InstPrefetch            0                       # Class of executed instruction. (Count)
system.atomicCpu1.exec_context.thread_0.statExecutedInstType::total            0                       # Class of executed instruction. (Count)
system.atomicCpu1.mmu.dtb.rdAccesses                0                       # TLB accesses on read requests (Count)
system.atomicCpu1.mmu.dtb.wrAccesses                0                       # TLB accesses on write requests (Count)
system.atomicCpu1.mmu.dtb.rdMisses                  0                       # TLB misses on read requests (Count)
system.atomicCpu1.mmu.dtb.wrMisses                  0                       # TLB misses on write requests (Count)
system.atomicCpu1.mmu.dtb.walker.power_state.pwrStateResidencyTicks::UNDEFINED 153149273673500                       # Cumulative time (in ticks) in various power states (Tick)
system.atomicCpu1.mmu.itb.rdAccesses                0                       # TLB accesses on read requests (Count)
system.atomicCpu1.mmu.itb.wrAccesses                0                       # TLB accesses on write requests (Count)
system.atomicCpu1.mmu.itb.rdMisses                  0                       # TLB misses on read requests (Count)
system.atomicCpu1.mmu.itb.wrMisses                  0                       # TLB misses on write requests (Count)
system.atomicCpu1.mmu.itb.walker.power_state.pwrStateResidencyTicks::UNDEFINED 153149273673500                       # Cumulative time (in ticks) in various power states (Tick)
system.atomicCpu1.power_state.pwrStateResidencyTicks::OFF 153149273673500                       # Cumulative time (in ticks) in various power states (Tick)
system.atomicCpu1.thread_0.numInsts                 0                       # Number of Instructions committed (Count)
system.atomicCpu1.thread_0.numOps                   0                       # Number of Ops committed (Count)
system.atomicCpu1.thread_0.numMemRefs               0                       # Number of Memory References (Count)
system.caches.delayHistogram::bucket_size          128                       # delay histogram for all message (Unspecified)
system.caches.delayHistogram::max_bucket         1279                       # delay histogram for all message (Unspecified)
system.caches.delayHistogram::samples       218821383                       # delay histogram for all message (Unspecified)
system.caches.delayHistogram::mean           0.294511                       # delay histogram for all message (Unspecified)
system.caches.delayHistogram::stdev          1.512517                       # delay histogram for all message (Unspecified)
system.caches.delayHistogram             |   218821372    100.00%    100.00% |           3      0.00%    100.00% |           1      0.00%    100.00% |           2      0.00%    100.00% |           1      0.00%    100.00% |           2      0.00%    100.00% |           2      0.00%    100.00% |           0      0.00%    100.00% |           0      0.00%    100.00% |           0      0.00%    100.00% # delay histogram for all message (Unspecified)
system.caches.delayHistogram::total         218821383                       # delay histogram for all message (Unspecified)
system.caches.m_outstandReqHistSeqr::bucket_size            1                       (Unspecified)
system.caches.m_outstandReqHistSeqr::max_bucket            9                       (Unspecified)
system.caches.m_outstandReqHistSeqr::samples  15639390211                       (Unspecified)
system.caches.m_outstandReqHistSeqr::mean     1.000016                       (Unspecified)
system.caches.m_outstandReqHistSeqr::gmean     1.000011                       (Unspecified)
system.caches.m_outstandReqHistSeqr::stdev     0.004053                       (Unspecified)
system.caches.m_outstandReqHistSeqr      |           0      0.00%      0.00% | 15639133280    100.00%    100.00% |      256931      0.00%    100.00% |           0      0.00%    100.00% |           0      0.00%    100.00% |           0      0.00%    100.00% |           0      0.00%    100.00% |           0      0.00%    100.00% |           0      0.00%    100.00% |           0      0.00%    100.00% (Unspecified)
system.caches.m_outstandReqHistSeqr::total  15639390211                       (Unspecified)
system.caches.m_latencyHistSeqr::bucket_size          512                       (Unspecified)
system.caches.m_latencyHistSeqr::max_bucket         5119                       (Unspecified)
system.caches.m_latencyHistSeqr::samples  15639390210                       (Unspecified)
system.caches.m_latencyHistSeqr::mean        1.448096                       (Unspecified)
system.caches.m_latencyHistSeqr::gmean       1.013828                       (Unspecified)
system.caches.m_latencyHistSeqr::stdev      17.345582                       (Unspecified)
system.caches.m_latencyHistSeqr          | 15633013800     99.96%     99.96% |     5959027      0.04%    100.00% |      188729      0.00%    100.00% |      159809      0.00%    100.00% |       64654      0.00%    100.00% |        3962      0.00%    100.00% |         204      0.00%    100.00% |          24      0.00%    100.00% |           1      0.00%    100.00% |           0      0.00%    100.00% (Unspecified)
system.caches.m_latencyHistSeqr::total    15639390210                       (Unspecified)
system.caches.m_hitLatencyHistSeqr::bucket_size            1                       (Unspecified)
system.caches.m_hitLatencyHistSeqr::max_bucket            9                       (Unspecified)
system.caches.m_hitLatencyHistSeqr::samples  15571186735                       (Unspecified)
system.caches.m_hitLatencyHistSeqr::mean            1                       (Unspecified)
system.caches.m_hitLatencyHistSeqr::gmean            1                       (Unspecified)
system.caches.m_hitLatencyHistSeqr       |           0      0.00%      0.00% | 15571186735    100.00%    100.00% |           0      0.00%    100.00% |           0      0.00%    100.00% |           0      0.00%    100.00% |           0      0.00%    100.00% |           0      0.00%    100.00% |           0      0.00%    100.00% |           0      0.00%    100.00% |           0      0.00%    100.00% (Unspecified)
system.caches.m_hitLatencyHistSeqr::total  15571186735                       (Unspecified)
system.caches.m_missLatencyHistSeqr::bucket_size          512                       (Unspecified)
system.caches.m_missLatencyHistSeqr::max_bucket         5119                       (Unspecified)
system.caches.m_missLatencyHistSeqr::samples     68203475                       (Unspecified)
system.caches.m_missLatencyHistSeqr::mean   103.750650                       (Unspecified)
system.caches.m_missLatencyHistSeqr::gmean    23.317343                       (Unspecified)
system.caches.m_missLatencyHistSeqr::stdev   241.824585                       (Unspecified)
system.caches.m_missLatencyHistSeqr      |    61827065     90.65%     90.65% |     5959027      8.74%     99.39% |      188729      0.28%     99.66% |      159809      0.23%     99.90% |       64654      0.09%     99.99% |        3962      0.01%    100.00% |         204      0.00%    100.00% |          24      0.00%    100.00% |           1      0.00%    100.00% |           0      0.00%    100.00% (Unspecified)
system.caches.m_missLatencyHistSeqr::total     68203475                       (Unspecified)
system.caches.delayVCHist.vnet_0::bucket_size          128                       # delay histogram for vnet_0 (Unspecified)
system.caches.delayVCHist.vnet_0::max_bucket         1279                       # delay histogram for vnet_0 (Unspecified)
system.caches.delayVCHist.vnet_0::samples    108025485                       # delay histogram for vnet_0 (Unspecified)
system.caches.delayVCHist.vnet_0::mean       0.596438                       # delay histogram for vnet_0 (Unspecified)
system.caches.delayVCHist.vnet_0::stdev      2.110278                       # delay histogram for vnet_0 (Unspecified)
system.caches.delayVCHist.vnet_0         |   108025474    100.00%    100.00% |           3      0.00%    100.00% |           1      0.00%    100.00% |           2      0.00%    100.00% |           1      0.00%    100.00% |           2      0.00%    100.00% |           2      0.00%    100.00% |           0      0.00%    100.00% |           0      0.00%    100.00% |           0      0.00%    100.00% # delay histogram for vnet_0 (Unspecified)
system.caches.delayVCHist.vnet_0::total     108025485                       # delay histogram for vnet_0 (Unspecified)
system.caches.delayVCHist.vnet_1::bucket_size            1                       # delay histogram for vnet_1 (Unspecified)
system.caches.delayVCHist.vnet_1::max_bucket            9                       # delay histogram for vnet_1 (Unspecified)
system.caches.delayVCHist.vnet_1::samples    109323039                       # delay histogram for vnet_1 (Unspecified)
system.caches.delayVCHist.vnet_1::mean       0.000134                       # delay histogram for vnet_1 (Unspecified)
system.caches.delayVCHist.vnet_1::stdev      0.027584                       # delay histogram for vnet_1 (Unspecified)
system.caches.delayVCHist.vnet_1         |   109319959    100.00%    100.00% |           0      0.00%    100.00% |         809      0.00%    100.00% |           0      0.00%    100.00% |         859      0.00%    100.00% |           0      0.00%    100.00% |         863      0.00%    100.00% |           0      0.00%    100.00% |         549      0.00%    100.00% |           0      0.00%    100.00% # delay histogram for vnet_1 (Unspecified)
system.caches.delayVCHist.vnet_1::total     109323039                       # delay histogram for vnet_1 (Unspecified)
system.caches.delayVCHist.vnet_2::bucket_size            1                       # delay histogram for vnet_2 (Unspecified)
system.caches.delayVCHist.vnet_2::max_bucket            9                       # delay histogram for vnet_2 (Unspecified)
system.caches.delayVCHist.vnet_2::samples      1472859                       # delay histogram for vnet_2 (Unspecified)
system.caches.delayVCHist.vnet_2::mean       0.000099                       # delay histogram for vnet_2 (Unspecified)
system.caches.delayVCHist.vnet_2::stdev      0.014080                       # delay histogram for vnet_2 (Unspecified)
system.caches.delayVCHist.vnet_2         |     1472786    100.00%    100.00% |           0      0.00%    100.00% |          73      0.00%    100.00% |           0      0.00%    100.00% |           0      0.00%    100.00% |           0      0.00%    100.00% |           0      0.00%    100.00% |           0      0.00%    100.00% |           0      0.00%    100.00% |           0      0.00%    100.00% # delay histogram for vnet_2 (Unspecified)
system.caches.delayVCHist.vnet_2::total       1472859                       # delay histogram for vnet_2 (Unspecified)
system.caches.L1Cache_Controller.Load    |   880633406     52.20%     52.20% |   806564421     47.80%    100.00% (Unspecified)
system.caches.L1Cache_Controller.Load::total   1687197827                       (Unspecified)
system.caches.L1Cache_Controller.Ifetch  |18446744072082905088     50.00%     50.00% |18446744071761922048     50.00%    100.00% (Unspecified)
system.caches.L1Cache_Controller.Ifetch::total 36893488143844827136                       (Unspecified)
system.caches.L1Cache_Controller.Store   |   188364699     54.35%     54.35% |   158235736     45.65%    100.00% (Unspecified)
system.caches.L1Cache_Controller.Store::total    346600435                       (Unspecified)
system.caches.L1Cache_Controller.Inv     |      445666     48.31%     48.31% |      476787     51.69%    100.00% (Unspecified)
system.caches.L1Cache_Controller.Inv::total       922453                       (Unspecified)
system.caches.L1Cache_Controller.L1_Replacement |    35565751     52.24%     52.24% |    32519692     47.76%    100.00% (Unspecified)
system.caches.L1Cache_Controller.L1_Replacement::total     68085443                       (Unspecified)
system.caches.L1Cache_Controller.Fwd_GETX |       10815     33.47%     33.47% |       21501     66.53%    100.00% (Unspecified)
system.caches.L1Cache_Controller.Fwd_GETX::total        32316                       (Unspecified)
system.caches.L1Cache_Controller.Fwd_GETS |      267650     51.66%     51.66% |      250440     48.34%    100.00% (Unspecified)
system.caches.L1Cache_Controller.Fwd_GETS::total       518090                       (Unspecified)
system.caches.L1Cache_Controller.Data    |        6774     99.72%     99.72% |          19      0.28%    100.00% (Unspecified)
system.caches.L1Cache_Controller.Data::total         6793                       (Unspecified)
system.caches.L1Cache_Controller.Data_Exclusive |     7997959     57.51%     57.51% |     5909895     42.49%    100.00% (Unspecified)
system.caches.L1Cache_Controller.Data_Exclusive::total     13907854                       (Unspecified)
system.caches.L1Cache_Controller.DataS_fromL1 |      250440     48.34%     48.34% |      267650     51.66%    100.00% (Unspecified)
system.caches.L1Cache_Controller.DataS_fromL1::total       518090                       (Unspecified)
system.caches.L1Cache_Controller.Data_all_Acks |    27346223     50.88%     50.88% |    26398278     49.12%    100.00% (Unspecified)
system.caches.L1Cache_Controller.Data_all_Acks::total     53744501                       (Unspecified)
system.caches.L1Cache_Controller.Ack     |       25913     98.77%     98.77% |         324      1.23%    100.00% (Unspecified)
system.caches.L1Cache_Controller.Ack::total        26237                       (Unspecified)
system.caches.L1Cache_Controller.Ack_all |       32687     98.96%     98.96% |         343      1.04%    100.00% (Unspecified)
system.caches.L1Cache_Controller.Ack_all::total        33030                       (Unspecified)
system.caches.L1Cache_Controller.WB_Ack  |    11186697     57.76%     57.76% |     8180112     42.24%    100.00% (Unspecified)
system.caches.L1Cache_Controller.WB_Ack::total     19366809                       (Unspecified)
system.caches.L1Cache_Controller.NP.Load |    31927372     51.66%     51.66% |    29880118     48.34%    100.00% (Unspecified)
system.caches.L1Cache_Controller.NP.Load::total     61807490                       (Unspecified)
system.caches.L1Cache_Controller.NP.Ifetch |      200998     68.26%     68.26% |       93474     31.74%    100.00% (Unspecified)
system.caches.L1Cache_Controller.NP.Ifetch::total       294472                       (Unspecified)
system.caches.L1Cache_Controller.NP.Store |     3446085     57.43%     57.43% |     2554796     42.57%    100.00% (Unspecified)
system.caches.L1Cache_Controller.NP.Store::total      6000881                       (Unspecified)
system.caches.L1Cache_Controller.NP.Inv  |      413925     50.18%     50.18% |      410878     49.82%    100.00% (Unspecified)
system.caches.L1Cache_Controller.NP.Inv::total       824803                       (Unspecified)
system.caches.L1Cache_Controller.I.Load  |        4405     14.04%     14.04% |       26966     85.96%    100.00% (Unspecified)
system.caches.L1Cache_Controller.I.Load::total        31371                       (Unspecified)
system.caches.L1Cache_Controller.I.Ifetch |       21410     52.37%     52.37% |       19475     47.63%    100.00% (Unspecified)
system.caches.L1Cache_Controller.I.Ifetch::total        40885                       (Unspecified)
system.caches.L1Cache_Controller.I.Store |        1126     52.74%     52.74% |        1009     47.26%    100.00% (Unspecified)
system.caches.L1Cache_Controller.I.Store::total         2135                       (Unspecified)
system.caches.L1Cache_Controller.I.L1_Replacement |       15385     27.93%     27.93% |       39700     72.07%    100.00% (Unspecified)
system.caches.L1Cache_Controller.I.L1_Replacement::total        55085                       (Unspecified)
system.caches.L1Cache_Controller.S.Load  |   313775131     50.36%     50.36% |   309290131     49.64%    100.00% (Unspecified)
system.caches.L1Cache_Controller.S.Load::total    623065262                       (Unspecified)
system.caches.L1Cache_Controller.S.Ifetch |18446744072082681856     50.00%     50.00% |18446744071761807360     50.00%    100.00% (Unspecified)
system.caches.L1Cache_Controller.S.Ifetch::total 36893488143844491264                       (Unspecified)
system.caches.L1Cache_Controller.S.Store |       25913     98.75%     98.75% |         328      1.25%    100.00% (Unspecified)
system.caches.L1Cache_Controller.S.Store::total        26241                       (Unspecified)
system.caches.L1Cache_Controller.S.Inv   |       28166     34.01%     34.01% |       54645     65.99%    100.00% (Unspecified)
system.caches.L1Cache_Controller.S.Inv::total        82811                       (Unspecified)
system.caches.L1Cache_Controller.S.L1_Replacement |    24363669     50.07%     50.07% |    24299880     49.93%    100.00% (Unspecified)
system.caches.L1Cache_Controller.S.L1_Replacement::total     48663549                       (Unspecified)
system.caches.L1Cache_Controller.E.Load  |   231199986     50.10%     50.10% |   230290444     49.90%    100.00% (Unspecified)
system.caches.L1Cache_Controller.E.Load::total    461490430                       (Unspecified)
system.caches.L1Cache_Controller.E.Store |     1896061     91.99%     91.99% |      165178      8.01%    100.00% (Unspecified)
system.caches.L1Cache_Controller.E.Store::total      2061239                       (Unspecified)
system.caches.L1Cache_Controller.E.Inv   |        1362     14.74%     14.74% |        7881     85.26%    100.00% (Unspecified)
system.caches.L1Cache_Controller.E.Inv::total         9243                       (Unspecified)
system.caches.L1Cache_Controller.E.L1_Replacement |     5857428     51.63%     51.63% |     5487500     48.37%    100.00% (Unspecified)
system.caches.L1Cache_Controller.E.L1_Replacement::total     11344928                       (Unspecified)
system.caches.L1Cache_Controller.E.Fwd_GETX |           4      0.21%      0.21% |        1904     99.79%    100.00% (Unspecified)
system.caches.L1Cache_Controller.E.Fwd_GETX::total         1908                       (Unspecified)
system.caches.L1Cache_Controller.E.Fwd_GETS |      240810     49.59%     49.59% |      244746     50.41%    100.00% (Unspecified)
system.caches.L1Cache_Controller.E.Fwd_GETS::total       485556                       (Unspecified)
system.caches.L1Cache_Controller.M.Load  |   303726512     56.16%     56.16% |   237076762     43.84%    100.00% (Unspecified)
system.caches.L1Cache_Controller.M.Load::total    540803274                       (Unspecified)
system.caches.L1Cache_Controller.M.Store |   182995514     54.06%     54.06% |   155514425     45.94%    100.00% (Unspecified)
system.caches.L1Cache_Controller.M.Store::total    338509939                       (Unspecified)
system.caches.L1Cache_Controller.M.Inv   |        2213     39.63%     39.63% |        3371     60.37%    100.00% (Unspecified)
system.caches.L1Cache_Controller.M.Inv::total         5584                       (Unspecified)
system.caches.L1Cache_Controller.M.L1_Replacement |     5329269     66.43%     66.43% |     2692612     33.57%    100.00% (Unspecified)
system.caches.L1Cache_Controller.M.L1_Replacement::total      8021881                       (Unspecified)
system.caches.L1Cache_Controller.M.Fwd_GETX |       10811     35.55%     35.55% |       19597     64.45%    100.00% (Unspecified)
system.caches.L1Cache_Controller.M.Fwd_GETX::total        30408                       (Unspecified)
system.caches.L1Cache_Controller.M.Fwd_GETS |       26839     82.50%     82.50% |        5694     17.50%    100.00% (Unspecified)
system.caches.L1Cache_Controller.M.Fwd_GETS::total        32533                       (Unspecified)
system.caches.L1Cache_Controller.IS.Inv  |           0      0.00%      0.00% |           7    100.00%    100.00% (Unspecified)
system.caches.L1Cache_Controller.IS.Inv::total            7                       (Unspecified)
system.caches.L1Cache_Controller.IS.Data_Exclusive |     7997959     57.51%     57.51% |     5909895     42.49%    100.00% (Unspecified)
system.caches.L1Cache_Controller.IS.Data_Exclusive::total     13907854                       (Unspecified)
system.caches.L1Cache_Controller.IS.DataS_fromL1 |      250440     48.34%     48.34% |      267643     51.66%    100.00% (Unspecified)
system.caches.L1Cache_Controller.IS.DataS_fromL1::total       518083                       (Unspecified)
system.caches.L1Cache_Controller.IS.Data_all_Acks |    23905786     50.07%     50.07% |    23842488     49.93%    100.00% (Unspecified)
system.caches.L1Cache_Controller.IS.Data_all_Acks::total     47748274                       (Unspecified)
system.caches.L1Cache_Controller.IM.Inv  |           0      0.00%      0.00% |           1    100.00%    100.00% (Unspecified)
system.caches.L1Cache_Controller.IM.Inv::total            1                       (Unspecified)
system.caches.L1Cache_Controller.IM.Data |        6774     99.72%     99.72% |          19      0.28%    100.00% (Unspecified)
system.caches.L1Cache_Controller.IM.Data::total         6793                       (Unspecified)
system.caches.L1Cache_Controller.IM.Data_all_Acks |     3440437     57.38%     57.38% |     2555790     42.62%    100.00% (Unspecified)
system.caches.L1Cache_Controller.IM.Data_all_Acks::total      5996227                       (Unspecified)
system.caches.L1Cache_Controller.SM.Inv  |           0      0.00%      0.00% |           4    100.00%    100.00% (Unspecified)
system.caches.L1Cache_Controller.SM.Inv::total            4                       (Unspecified)
system.caches.L1Cache_Controller.SM.Ack  |       25913     98.77%     98.77% |         324      1.23%    100.00% (Unspecified)
system.caches.L1Cache_Controller.SM.Ack::total        26237                       (Unspecified)
system.caches.L1Cache_Controller.SM.Ack_all |       32687     98.96%     98.96% |         343      1.04%    100.00% (Unspecified)
system.caches.L1Cache_Controller.SM.Ack_all::total        33030                       (Unspecified)
system.caches.L1Cache_Controller.IS_I.DataS_fromL1 |           0      0.00%      0.00% |           7    100.00%    100.00% (Unspecified)
system.caches.L1Cache_Controller.IS_I.DataS_fromL1::total            7                       (Unspecified)
system.caches.L1Cache_Controller.M_I.Fwd_GETS |           1    100.00%    100.00% |           0      0.00%    100.00% (Unspecified)
system.caches.L1Cache_Controller.M_I.Fwd_GETS::total            1                       (Unspecified)
system.caches.L1Cache_Controller.M_I.WB_Ack |    11186696     57.76%     57.76% |     8180112     42.24%    100.00% (Unspecified)
system.caches.L1Cache_Controller.M_I.WB_Ack::total     19366808                       (Unspecified)
system.caches.L1Cache_Controller.SINK_WB_ACK.WB_Ack |           1    100.00%    100.00% |           0      0.00%    100.00% (Unspecified)
system.caches.L1Cache_Controller.SINK_WB_ACK.WB_Ack::total            1                       (Unspecified)
system.caches.Directory_Controller.Fetch     10221642      0.00%      0.00% (Unspecified)
system.caches.Directory_Controller.Data       5695530      0.00%      0.00% (Unspecified)
system.caches.Directory_Controller.Memory_Data     10221642      0.00%      0.00% (Unspecified)
system.caches.Directory_Controller.Memory_Ack      5695530      0.00%      0.00% (Unspecified)
system.caches.Directory_Controller.CleanReplacement      4395040      0.00%      0.00% (Unspecified)
system.caches.Directory_Controller.I.Fetch     10221642      0.00%      0.00% (Unspecified)
system.caches.Directory_Controller.M.Data      5695530      0.00%      0.00% (Unspecified)
system.caches.Directory_Controller.M.CleanReplacement      4395040      0.00%      0.00% (Unspecified)
system.caches.Directory_Controller.IM.Memory_Data     10221642      0.00%      0.00% (Unspecified)
system.caches.Directory_Controller.MI.Memory_Ack      5695530      0.00%      0.00% (Unspecified)
system.caches.L2Cache_Controller.L1_GET_INSTR |       18008      5.37%      5.37% |       57230     17.06%     22.43% |       46045     13.73%     36.16% |       12283      3.66%     39.82% |       30950      9.23%     49.05% |       50386     15.02%     64.08% |       67722     20.19%     84.27% |       52764     15.73%    100.00% (Unspecified)
system.caches.L2Cache_Controller.L1_GET_INSTR::total       335388                       (Unspecified)
system.caches.L2Cache_Controller.L1_GETS |     7767015     12.56%     12.56% |     7872849     12.73%     25.29% |     7691804     12.44%     37.72% |     7740824     12.52%     50.24% |     7683084     12.42%     62.66% |     7735371     12.51%     75.17% |     7711996     12.47%     87.64% |     7643983     12.36%    100.00% (Unspecified)
system.caches.L2Cache_Controller.L1_GETS::total     61846926                       (Unspecified)
system.caches.L2Cache_Controller.L1_GETX |      761625     12.69%     12.69% |      745621     12.42%     25.11% |      739729     12.32%     37.43% |      748651     12.47%     49.90% |      744729     12.41%     62.31% |      761031     12.68%     74.99% |      748901     12.48%     87.46% |      752750     12.54%    100.00% (Unspecified)
system.caches.L2Cache_Controller.L1_GETX::total      6003037                       (Unspecified)
system.caches.L2Cache_Controller.L1_UPGRADE |        3868     11.74%     11.74% |        5159     15.65%     27.39% |         541      1.64%     29.03% |         533      1.62%     30.65% |         643      1.95%     32.60% |         543      1.65%     34.25% |       20959     63.59%     97.84% |         712      2.16%    100.00% (Unspecified)
system.caches.L2Cache_Controller.L1_UPGRADE::total        32958                       (Unspecified)
system.caches.L2Cache_Controller.L1_PUTX |     2440122     12.60%     12.60% |     2441757     12.61%     25.21% |     2391145     12.35%     37.55% |     2418682     12.49%     50.04% |     2419643     12.49%     62.54% |     2430013     12.55%     75.08% |     2409529     12.44%     87.53% |     2415919     12.47%    100.00% (Unspecified)
system.caches.L2Cache_Controller.L1_PUTX::total     19366810                       (Unspecified)
system.caches.L2Cache_Controller.L2_Replacement |      711619     12.50%     12.50% |      711231     12.50%     25.00% |      711340     12.50%     37.50% |      711249     12.50%     49.99% |      711491     12.50%     62.49% |      711743     12.51%     75.00% |      711423     12.50%     87.50% |      711520     12.50%    100.00% (Unspecified)
system.caches.L2Cache_Controller.L2_Replacement::total      5691616                       (Unspecified)
system.caches.L2Cache_Controller.L2_Replacement_clean |      550146     12.51%     12.51% |      551547     12.54%     25.04% |      551146     12.53%     37.57% |      550754     12.52%     50.09% |      549221     12.49%     62.58% |      549154     12.48%     75.06% |      547468     12.45%     87.51% |      549518     12.49%    100.00% (Unspecified)
system.caches.L2Cache_Controller.L2_Replacement_clean::total      4398954                       (Unspecified)
system.caches.L2Cache_Controller.Mem_Data |     1278149     12.50%     12.50% |     1279162     12.51%     25.02% |     1278870     12.51%     37.53% |     1278387     12.51%     50.04% |     1277096     12.49%     62.53% |     1277281     12.50%     75.03% |     1275275     12.48%     87.50% |     1277422     12.50%    100.00% (Unspecified)
system.caches.L2Cache_Controller.Mem_Data::total     10221642                       (Unspecified)
system.caches.L2Cache_Controller.Mem_Ack |     1261765     12.50%     12.50% |     1262778     12.51%     25.02% |     1262486     12.51%     37.53% |     1262003     12.51%     50.04% |     1260712     12.49%     62.53% |     1260897     12.50%     75.03% |     1258891     12.48%     87.50% |     1261038     12.50%    100.00% (Unspecified)
system.caches.L2Cache_Controller.Mem_Ack::total     10090570                       (Unspecified)
system.caches.L2Cache_Controller.WB_Data |        9457     24.81%     24.81% |        3978     10.44%     35.25% |        1180      3.10%     38.34% |        1393      3.65%     42.00% |        1522      3.99%     45.99% |        1613      4.23%     50.22% |       17244     45.24%     95.46% |        1730      4.54%    100.00% (Unspecified)
system.caches.L2Cache_Controller.WB_Data::total        38117                       (Unspecified)
system.caches.L2Cache_Controller.WB_Data_clean |       60291     12.42%     12.42% |       62130     12.80%     25.21% |       61028     12.57%     37.78% |       60353     12.43%     50.21% |       60675     12.50%     62.71% |       60870     12.54%     75.24% |       60087     12.37%     87.62% |       60123     12.38%    100.00% (Unspecified)
system.caches.L2Cache_Controller.WB_Data_clean::total       485557                       (Unspecified)
system.caches.L2Cache_Controller.Ack     |       53522     12.48%     12.48% |       53677     12.52%     25.00% |       54176     12.63%     37.63% |       53219     12.41%     50.04% |       53883     12.56%     62.61% |       54040     12.60%     75.21% |       53167     12.40%     87.61% |       53152     12.39%    100.00% (Unspecified)
system.caches.L2Cache_Controller.Ack::total       428836                       (Unspecified)
system.caches.L2Cache_Controller.Ack_all |       56870     12.50%     12.50% |       57201     12.57%     25.07% |       57389     12.61%     37.68% |       56491     12.42%     50.10% |       57152     12.56%     62.66% |       57124     12.55%     75.21% |       56278     12.37%     87.58% |       56498     12.42%    100.00% (Unspecified)
system.caches.L2Cache_Controller.Ack_all::total       455003                       (Unspecified)
system.caches.L2Cache_Controller.Unblock |       68925     13.30%     13.30% |       65549     12.65%     25.96% |       61746     11.92%     37.87% |       61049     11.78%     49.66% |       61579     11.89%     61.54% |       61585     11.89%     73.43% |       76650     14.79%     88.22% |       61007     11.78%    100.00% (Unspecified)
system.caches.L2Cache_Controller.Unblock::total       518090                       (Unspecified)
system.caches.L2Cache_Controller.Exclusive_Unblock |     2517481     12.63%     12.63% |     2513615     12.61%     25.23% |     2458798     12.33%     37.57% |     2485998     12.47%     50.04% |     2487442     12.48%     62.51% |     2498086     12.53%     75.04% |     2492433     12.50%     87.54% |     2483258     12.46%    100.00% (Unspecified)
system.caches.L2Cache_Controller.Exclusive_Unblock::total     19937111                       (Unspecified)
system.caches.L2Cache_Controller.NP.L1_GET_INSTR |        4904     12.76%     12.76% |        5274     13.72%     26.48% |        4826     12.55%     39.03% |        4562     11.87%     50.90% |        4803     12.50%     63.40% |        4711     12.26%     75.65% |        4579     11.91%     87.56% |        4780     12.44%    100.00% (Unspecified)
system.caches.L2Cache_Controller.NP.L1_GET_INSTR::total        38439                       (Unspecified)
system.caches.L2Cache_Controller.NP.L1_GETS |      659385     12.50%     12.50% |      660636     12.53%     25.03% |      660702     12.53%     37.55% |      660353     12.52%     50.07% |      658646     12.49%     62.56% |      658711     12.49%     75.05% |      657065     12.46%     87.51% |      658963     12.49%    100.00% (Unspecified)
system.caches.L2Cache_Controller.NP.L1_GETS::total      5274461                       (Unspecified)
system.caches.L2Cache_Controller.NP.L1_GETX |      613860     12.51%     12.51% |      613252     12.49%     25.00% |      613342     12.49%     37.49% |      613472     12.50%     49.99% |      613647     12.50%     62.49% |      613859     12.51%     75.00% |      613631     12.50%     87.50% |      613679     12.50%    100.00% (Unspecified)
system.caches.L2Cache_Controller.NP.L1_GETX::total      4908742                       (Unspecified)
system.caches.L2Cache_Controller.SS.L1_GET_INSTR |       12477      4.27%      4.27% |       51367     17.57%     21.84% |       40613     13.89%     35.73% |        7167      2.45%     38.18% |       25548      8.74%     46.92% |       45092     15.42%     62.35% |       62603     21.42%     83.76% |       47465     16.24%    100.00% (Unspecified)
system.caches.L2Cache_Controller.SS.L1_GET_INSTR::total       292332                       (Unspecified)
system.caches.L2Cache_Controller.SS.L1_GETS |     5945970     12.54%     12.54% |     6044348     12.75%     25.29% |     5911415     12.47%     37.76% |     5942880     12.53%     50.29% |     5879364     12.40%     62.69% |     5937188     12.52%     75.22% |     5897987     12.44%     87.65% |     5853093     12.35%    100.00% (Unspecified)
system.caches.L2Cache_Controller.SS.L1_GETS::total     47412245                       (Unspecified)
system.caches.L2Cache_Controller.SS.L1_GETX |        4591     67.58%     67.58% |           1      0.01%     67.60% |           0      0.00%     67.60% |           1      0.01%     67.61% |          67      0.99%     68.60% |           0      0.00%     68.60% |        2130     31.36%     99.96% |           3      0.04%    100.00% (Unspecified)
system.caches.L2Cache_Controller.SS.L1_GETX::total         6793                       (Unspecified)
system.caches.L2Cache_Controller.SS.L1_UPGRADE |        3867     14.74%     14.74% |        5158     19.66%     34.40% |         541      2.06%     36.46% |         533      2.03%     38.49% |         643      2.45%     40.94% |         542      2.07%     43.01% |       14241     54.28%     97.29% |         712      2.71%    100.00% (Unspecified)
system.caches.L2Cache_Controller.SS.L1_UPGRADE::total        26237                       (Unspecified)
system.caches.L2Cache_Controller.SS.L1_PUTX |           0      0.00%      0.00% |           0      0.00%      0.00% |           0      0.00%      0.00% |           1    100.00%    100.00% |           0      0.00%    100.00% |           0      0.00%    100.00% |           0      0.00%    100.00% |           0      0.00%    100.00% (Unspecified)
system.caches.L2Cache_Controller.SS.L1_PUTX::total            1                       (Unspecified)
system.caches.L2Cache_Controller.SS.L2_Replacement |         217     11.72%     11.72% |         229     12.37%     24.10% |         226     12.21%     36.30% |         216     11.67%     47.97% |         258     13.94%     61.91% |         237     12.80%     74.72% |         245     13.24%     87.95% |         223     12.05%    100.00% (Unspecified)
system.caches.L2Cache_Controller.SS.L2_Replacement::total         1851                       (Unspecified)
system.caches.L2Cache_Controller.SS.L2_Replacement_clean |       55485     12.50%     12.50% |       55700     12.55%     25.05% |       56110     12.64%     37.69% |       55136     12.42%     50.11% |       55643     12.53%     62.64% |       55741     12.56%     75.20% |       54906     12.37%     87.57% |       55188     12.43%    100.00% (Unspecified)
system.caches.L2Cache_Controller.SS.L2_Replacement_clean::total       443909                       (Unspecified)
system.caches.L2Cache_Controller.M.L1_GETS |     1092667     12.66%     12.66% |     1102246     12.77%     25.42% |     1057883     12.25%     37.68% |     1076500     12.47%     50.14% |     1083459     12.55%     62.69% |     1077844     12.48%     75.18% |     1072254     12.42%     87.60% |     1070876     12.40%    100.00% (Unspecified)
system.caches.L2Cache_Controller.M.L1_GETS::total      8633729                       (Unspecified)
system.caches.L2Cache_Controller.M.L1_GETX |      137384     13.02%     13.02% |      128516     12.18%     25.20% |      122610     11.62%     36.82% |      131361     12.45%     49.27% |      127270     12.06%     61.33% |      143366     13.59%     74.92% |      129345     12.26%     87.18% |      135317     12.82%    100.00% (Unspecified)
system.caches.L2Cache_Controller.M.L1_GETX::total      1055169                       (Unspecified)
system.caches.L2Cache_Controller.M.L2_Replacement |      711141     12.50%     12.50% |      710853     12.50%     25.00% |      711006     12.50%     37.50% |      710827     12.50%     50.00% |      711029     12.50%     62.50% |      711209     12.50%     75.00% |      710948     12.50%     87.50% |      711034     12.50%    100.00% (Unspecified)
system.caches.L2Cache_Controller.M.L2_Replacement::total      5688047                       (Unspecified)
system.caches.L2Cache_Controller.M.L2_Replacement_clean |      492931     12.50%     12.50% |      494165     12.54%     25.04% |      493629     12.52%     37.56% |      493988     12.53%     50.10% |      491913     12.48%     62.57% |      491666     12.47%     75.05% |      490984     12.46%     87.50% |      492660     12.50%    100.00% (Unspecified)
system.caches.L2Cache_Controller.M.L2_Replacement_clean::total      3941936                       (Unspecified)
system.caches.L2Cache_Controller.MT.L1_GETS |       68925     13.30%     13.30% |       65549     12.65%     25.96% |       61746     11.92%     37.87% |       61049     11.78%     49.66% |       61579     11.89%     61.54% |       61585     11.89%     73.43% |       76650     14.79%     88.22% |       61007     11.78%    100.00% (Unspecified)
system.caches.L2Cache_Controller.MT.L1_GETS::total       518090                       (Unspecified)
system.caches.L2Cache_Controller.MT.L1_GETX |        5786     17.90%     17.90% |        3850     11.91%     29.82% |        3776     11.68%     41.50% |        3816     11.81%     53.31% |        3745     11.59%     64.90% |        3803     11.77%     76.67% |        3794     11.74%     88.41% |        3746     11.59%    100.00% (Unspecified)
system.caches.L2Cache_Controller.MT.L1_GETX::total        32316                       (Unspecified)
system.caches.L2Cache_Controller.MT.L1_PUTX |     2440122     12.60%     12.60% |     2441757     12.61%     25.21% |     2391145     12.35%     37.55% |     2418680     12.49%     50.04% |     2419643     12.49%     62.54% |     2430013     12.55%     75.08% |     2409529     12.44%     87.53% |     2415919     12.47%    100.00% (Unspecified)
system.caches.L2Cache_Controller.MT.L1_PUTX::total     19366808                       (Unspecified)
system.caches.L2Cache_Controller.MT.L2_Replacement |         261     15.19%     15.19% |         149      8.67%     23.86% |         108      6.29%     30.15% |         206     11.99%     42.14% |         204     11.87%     54.02% |         297     17.29%     71.30% |         230     13.39%     84.69% |         263     15.31%    100.00% (Unspecified)
system.caches.L2Cache_Controller.MT.L2_Replacement::total         1718                       (Unspecified)
system.caches.L2Cache_Controller.MT.L2_Replacement_clean |        1730     13.20%     13.20% |        1682     12.83%     26.03% |        1407     10.73%     36.76% |        1630     12.43%     49.20% |        1665     12.70%     61.90% |        1747     13.33%     75.22% |        1578     12.04%     87.26% |        1670     12.74%    100.00% (Unspecified)
system.caches.L2Cache_Controller.MT.L2_Replacement_clean::total        13109                       (Unspecified)
system.caches.L2Cache_Controller.M_I.L1_GET_INSTR |           0      0.00%      0.00% |           6     19.35%     19.35% |           7     22.58%     41.94% |          12     38.71%     80.65% |           0      0.00%     80.65% |           0      0.00%     80.65% |           3      9.68%     90.32% |           3      9.68%    100.00% (Unspecified)
system.caches.L2Cache_Controller.M_I.L1_GET_INSTR::total           31                       (Unspecified)
system.caches.L2Cache_Controller.M_I.L1_GETS |           1     20.00%     20.00% |           0      0.00%     20.00% |           0      0.00%     20.00% |           1     20.00%     40.00% |           0      0.00%     40.00% |           2     40.00%     80.00% |           1     20.00%    100.00% |           0      0.00%    100.00% (Unspecified)
system.caches.L2Cache_Controller.M_I.L1_GETS::total            5                       (Unspecified)
system.caches.L2Cache_Controller.M_I.L1_GETX |           1     25.00%     25.00% |           0      0.00%     25.00% |           0      0.00%     25.00% |           0      0.00%     25.00% |           0      0.00%     25.00% |           2     50.00%     75.00% |           0      0.00%     75.00% |           1     25.00%    100.00% (Unspecified)
system.caches.L2Cache_Controller.M_I.L1_GETX::total            4                       (Unspecified)
system.caches.L2Cache_Controller.M_I.Mem_Ack |     1261765     12.50%     12.50% |     1262778     12.51%     25.02% |     1262486     12.51%     37.53% |     1262003     12.51%     50.04% |     1260712     12.49%     62.53% |     1260897     12.50%     75.03% |     1258891     12.48%     87.50% |     1261038     12.50%    100.00% (Unspecified)
system.caches.L2Cache_Controller.M_I.Mem_Ack::total     10090570                       (Unspecified)
system.caches.L2Cache_Controller.MT_I.WB_Data |         254     15.21%     15.21% |         144      8.62%     23.83% |         104      6.23%     30.06% |         203     12.16%     42.22% |         195     11.68%     53.89% |         293     17.54%     71.44% |         219     13.11%     84.55% |         258     15.45%    100.00% (Unspecified)
system.caches.L2Cache_Controller.MT_I.WB_Data::total         1670                       (Unspecified)
system.caches.L2Cache_Controller.MT_I.Ack_all |           7     14.58%     14.58% |           5     10.42%     25.00% |           4      8.33%     33.33% |           3      6.25%     39.58% |           9     18.75%     58.33% |           4      8.33%     66.67% |          11     22.92%     89.58% |           5     10.42%    100.00% (Unspecified)
system.caches.L2Cache_Controller.MT_I.Ack_all::total           48                       (Unspecified)
system.caches.L2Cache_Controller.MCT_I.WB_Data |         569     14.54%     14.54% |         415     10.60%     25.14% |         358      9.15%     34.29% |         494     12.62%     46.91% |         423     10.81%     57.72% |         605     15.46%     73.17% |         462     11.80%     84.98% |         588     15.02%    100.00% (Unspecified)
system.caches.L2Cache_Controller.MCT_I.WB_Data::total         3914                       (Unspecified)
system.caches.L2Cache_Controller.MCT_I.Ack_all |        1161     12.63%     12.63% |        1267     13.78%     26.41% |        1049     11.41%     37.81% |        1136     12.35%     50.17% |        1242     13.51%     63.68% |        1142     12.42%     76.10% |        1116     12.14%     88.23% |        1082     11.77%    100.00% (Unspecified)
system.caches.L2Cache_Controller.MCT_I.Ack_all::total         9195                       (Unspecified)
system.caches.L2Cache_Controller.I_I.Ack |       53305     12.48%     12.48% |       53448     12.52%     25.00% |       53950     12.64%     37.64% |       53003     12.41%     50.05% |       53625     12.56%     62.61% |       53803     12.60%     75.21% |       52922     12.39%     87.60% |       52929     12.40%    100.00% (Unspecified)
system.caches.L2Cache_Controller.I_I.Ack::total       426985                       (Unspecified)
system.caches.L2Cache_Controller.I_I.Ack_all |       55485     12.50%     12.50% |       55700     12.55%     25.05% |       56110     12.64%     37.69% |       55136     12.42%     50.11% |       55643     12.53%     62.64% |       55741     12.56%     75.20% |       54906     12.37%     87.57% |       55188     12.43%    100.00% (Unspecified)
system.caches.L2Cache_Controller.I_I.Ack_all::total       443909                       (Unspecified)
system.caches.L2Cache_Controller.S_I.Ack |         217     11.72%     11.72% |         229     12.37%     24.10% |         226     12.21%     36.30% |         216     11.67%     47.97% |         258     13.94%     61.91% |         237     12.80%     74.72% |         245     13.24%     87.95% |         223     12.05%    100.00% (Unspecified)
system.caches.L2Cache_Controller.S_I.Ack::total         1851                       (Unspecified)
system.caches.L2Cache_Controller.S_I.Ack_all |         217     11.72%     11.72% |         229     12.37%     24.10% |         226     12.21%     36.30% |         216     11.67%     47.97% |         258     13.94%     61.91% |         237     12.80%     74.72% |         245     13.24%     87.95% |         223     12.05%    100.00% (Unspecified)
system.caches.L2Cache_Controller.S_I.Ack_all::total         1851                       (Unspecified)
system.caches.L2Cache_Controller.ISS.L1_GETS |          59     17.56%     17.56% |          44     13.10%     30.65% |          56     16.67%     47.32% |          38     11.31%     58.63% |          35     10.42%     69.05% |          39     11.61%     80.65% |          27      8.04%     88.69% |          38     11.31%    100.00% (Unspecified)
system.caches.L2Cache_Controller.ISS.L1_GETS::total          336                       (Unspecified)
system.caches.L2Cache_Controller.ISS.Mem_Data |      659326     12.50%     12.50% |      660592     12.53%     25.03% |      660646     12.53%     37.55% |      660315     12.52%     50.07% |      658611     12.49%     62.56% |      658672     12.49%     75.05% |      657038     12.46%     87.51% |      658925     12.49%    100.00% (Unspecified)
system.caches.L2Cache_Controller.ISS.Mem_Data::total      5274125                       (Unspecified)
system.caches.L2Cache_Controller.IS.L1_GET_INSTR |         627     13.67%     13.67% |         583     12.71%     26.38% |         599     13.06%     39.45% |         542     11.82%     51.26% |         599     13.06%     64.33% |         583     12.71%     77.04% |         537     11.71%     88.75% |         516     11.25%    100.00% (Unspecified)
system.caches.L2Cache_Controller.IS.L1_GET_INSTR::total         4586                       (Unspecified)
system.caches.L2Cache_Controller.IS.Mem_Data |        4963     12.80%     12.80% |        5318     13.72%     26.51% |        4882     12.59%     39.11% |        4600     11.86%     50.97% |        4838     12.48%     63.45% |        4750     12.25%     75.70% |        4606     11.88%     87.57% |        4818     12.43%    100.00% (Unspecified)
system.caches.L2Cache_Controller.IS.Mem_Data::total        38775                       (Unspecified)
system.caches.L2Cache_Controller.IM.L1_GETX |           2     18.18%     18.18% |           1      9.09%     27.27% |           1      9.09%     36.36% |           1      9.09%     45.45% |           0      0.00%     45.45% |           1      9.09%     54.55% |           1      9.09%     63.64% |           4     36.36%    100.00% (Unspecified)
system.caches.L2Cache_Controller.IM.L1_GETX::total           11                       (Unspecified)
system.caches.L2Cache_Controller.IM.Mem_Data |      613860     12.51%     12.51% |      613252     12.49%     25.00% |      613342     12.49%     37.49% |      613472     12.50%     49.99% |      613647     12.50%     62.49% |      613859     12.51%     75.00% |      613631     12.50%     87.50% |      613679     12.50%    100.00% (Unspecified)
system.caches.L2Cache_Controller.IM.Mem_Data::total      4908742                       (Unspecified)
system.caches.L2Cache_Controller.SS_MB.L1_GETS |           5      0.06%      0.06% |           0      0.00%      0.06% |           0      0.00%      0.06% |           2      0.02%      0.09% |           0      0.00%      0.09% |           0      0.00%      0.09% |        8007     99.91%    100.00% |           0      0.00%    100.00% (Unspecified)
system.caches.L2Cache_Controller.SS_MB.L1_GETS::total         8014                       (Unspecified)
system.caches.L2Cache_Controller.SS_MB.L1_GETX |           0      0.00%      0.00% |           1    100.00%    100.00% |           0      0.00%    100.00% |           0      0.00%    100.00% |           0      0.00%    100.00% |           0      0.00%    100.00% |           0      0.00%    100.00% |           0      0.00%    100.00% (Unspecified)
system.caches.L2Cache_Controller.SS_MB.L1_GETX::total            1                       (Unspecified)
system.caches.L2Cache_Controller.SS_MB.L1_UPGRADE |           1     25.00%     25.00% |           1     25.00%     50.00% |           0      0.00%     50.00% |           0      0.00%     50.00% |           0      0.00%     50.00% |           1     25.00%     75.00% |           1     25.00%    100.00% |           0      0.00%    100.00% (Unspecified)
system.caches.L2Cache_Controller.SS_MB.L1_UPGRADE::total            4                       (Unspecified)
system.caches.L2Cache_Controller.SS_MB.Exclusive_Unblock |        8458     25.61%     25.61% |        5159     15.62%     41.23% |         541      1.64%     42.86% |         534      1.62%     44.48% |         710      2.15%     46.63% |         542      1.64%     48.27% |       16371     49.56%     97.84% |         715      2.16%    100.00% (Unspecified)
system.caches.L2Cache_Controller.SS_MB.Exclusive_Unblock::total        33030                       (Unspecified)
system.caches.L2Cache_Controller.MT_MB.L1_GETS |           3      6.52%      6.52% |          26     56.52%     63.04% |           2      4.35%     67.39% |           1      2.17%     69.57% |           1      2.17%     71.74% |           2      4.35%     76.09% |           5     10.87%     86.96% |           6     13.04%    100.00% (Unspecified)
system.caches.L2Cache_Controller.MT_MB.L1_GETS::total           46                       (Unspecified)
system.caches.L2Cache_Controller.MT_MB.L1_GETX |           1    100.00%    100.00% |           0      0.00%    100.00% |           0      0.00%    100.00% |           0      0.00%    100.00% |           0      0.00%    100.00% |           0      0.00%    100.00% |           0      0.00%    100.00% |           0      0.00%    100.00% (Unspecified)
system.caches.L2Cache_Controller.MT_MB.L1_GETX::total            1                       (Unspecified)
system.caches.L2Cache_Controller.MT_MB.Exclusive_Unblock |     2509023     12.61%     12.61% |     2508456     12.60%     25.21% |     2458257     12.35%     37.56% |     2485464     12.49%     50.05% |     2486732     12.49%     62.54% |     2497544     12.55%     75.09% |     2476062     12.44%     87.53% |     2482543     12.47%    100.00% (Unspecified)
system.caches.L2Cache_Controller.MT_MB.Exclusive_Unblock::total     19904081                       (Unspecified)
system.caches.L2Cache_Controller.MT_IIB.L1_PUTX |           0      0.00%      0.00% |           0      0.00%      0.00% |           0      0.00%      0.00% |           1    100.00%    100.00% |           0      0.00%    100.00% |           0      0.00%    100.00% |           0      0.00%    100.00% |           0      0.00%    100.00% (Unspecified)
system.caches.L2Cache_Controller.MT_IIB.L1_PUTX::total            1                       (Unspecified)
system.caches.L2Cache_Controller.MT_IIB.WB_Data |        8634     26.54%     26.54% |        3419     10.51%     37.05% |         718      2.21%     39.26% |         696      2.14%     41.39% |         904      2.78%     44.17% |         715      2.20%     46.37% |       16563     50.91%     97.28% |         884      2.72%    100.00% (Unspecified)
system.caches.L2Cache_Controller.MT_IIB.WB_Data::total        32533                       (Unspecified)
system.caches.L2Cache_Controller.MT_IIB.WB_Data_clean |       60291     12.42%     12.42% |       62130     12.80%     25.21% |       61028     12.57%     37.78% |       60353     12.43%     50.21% |       60675     12.50%     62.71% |       60870     12.54%     75.24% |       60087     12.37%     87.62% |       60123     12.38%    100.00% (Unspecified)
system.caches.L2Cache_Controller.MT_IIB.WB_Data_clean::total       485557                       (Unspecified)
system.caches.L2Cache_Controller.MT_SB.L1_UPGRADE |           0      0.00%      0.00% |           0      0.00%      0.00% |           0      0.00%      0.00% |           0      0.00%      0.00% |           0      0.00%      0.00% |           0      0.00%      0.00% |        6717    100.00%    100.00% |           0      0.00%    100.00% (Unspecified)
system.caches.L2Cache_Controller.MT_SB.L1_UPGRADE::total         6717                       (Unspecified)
[...]
system.timingCpu0.exec_context.thread_0.statExecutedInstType::IprAccess            0      0.00%    100.00% # Class of executed instruction. (Count)
system.timingCpu0.exec_context.thread_0.statExecutedInstType::InstPrefetch            0      0.00%    100.00% # Class of executed instruction. (Count)
system.timingCpu0.exec_context.thread_0.statExecutedInstType::total  10198047147                       # Class of executed instruction. (Count)
system.timingCpu0.mmu.dtb.rdAccesses        864605226                       # TLB accesses on read requests (Count)
system.timingCpu0.mmu.dtb.wrAccesses        187679109                       # TLB accesses on write requests (Count)
system.timingCpu0.mmu.dtb.rdMisses            5452423                       # TLB misses on read requests (Count)
system.timingCpu0.mmu.dtb.wrMisses             240563                       # TLB misses on write requests (Count)
system.timingCpu0.mmu.dtb.walker.power_state.pwrStateResidencyTicks::UNDEFINED 153149273673500                       # Cumulative time (in ticks) in various power states (Tick)
system.timingCpu0.mmu.itb.rdAccesses                0                       # TLB accesses on read requests (Count)
system.timingCpu0.mmu.itb.wrAccesses       6963300053                       # TLB accesses on write requests (Count)
system.timingCpu0.mmu.itb.rdMisses                  0                       # TLB misses on read requests (Count)
system.timingCpu0.mmu.itb.wrMisses              12218                       # TLB misses on write requests (Count)
system.timingCpu0.mmu.itb.walker.power_state.pwrStateResidencyTicks::UNDEFINED 153149273673500                       # Cumulative time (in ticks) in various power states (Tick)
system.timingCpu0.power_state.numTransitions           48                       # Number of power state transitions (Count)
system.timingCpu0.power_state.ticksClkGated::samples           24                       # Distribution of time spent in the clock gated state (Tick)
system.timingCpu0.power_state.ticksClkGated::mean 947648906.250000                       # Distribution of time spent in the clock gated state (Tick)
system.timingCpu0.power_state.ticksClkGated::stdev 177873559.659141                       # Distribution of time spent in the clock gated state (Tick)
system.timingCpu0.power_state.ticksClkGated::1000-5e+10           24    100.00%    100.00% # Distribution of time spent in the clock gated state (Tick)
system.timingCpu0.power_state.ticksClkGated::min_value    192163250                       # Distribution of time spent in the clock gated state (Tick)
system.timingCpu0.power_state.ticksClkGated::max_value    997873750                       # Distribution of time spent in the clock gated state (Tick)
system.timingCpu0.power_state.ticksClkGated::total           24                       # Distribution of time spent in the clock gated state (Tick)
system.timingCpu0.power_state.pwrStateResidencyTicks::ON 2811722263000                       # Cumulative time (in ticks) in various power states (Tick)
system.timingCpu0.power_state.pwrStateResidencyTicks::CLK_GATED  22743573750                       # Cumulative time (in ticks) in various power states (Tick)
system.timingCpu0.power_state.pwrStateResidencyTicks::OFF 150314807836750                       # Cumulative time (in ticks) in various power states (Tick)
system.timingCpu0.thread_0.numInsts                 0                       # Number of Instructions committed (Count)
system.timingCpu0.thread_0.numOps                   0                       # Number of Ops committed (Count)
system.timingCpu0.thread_0.numMemRefs               0                       # Number of Memory References (Count)
system.timingCpu1.numCycles               20000000000                       # Number of cpu cycles simulated (Cycle)
system.timingCpu1.numWorkItemsStarted               0                       # Number of work items this cpu started (Count)
system.timingCpu1.numWorkItemsCompleted             0                       # Number of work items this cpu completed (Count)
system.timingCpu1.exec_context.thread_0.numInsts   5732654753                       # Number of instructions committed (Count)
system.timingCpu1.exec_context.thread_0.numOps   9740239505                       # Number of ops (including micro ops) committed (Count)
system.timingCpu1.exec_context.thread_0.numIntAluAccesses   9572811533                       # Number of integer alu accesses (Count)
system.timingCpu1.exec_context.thread_0.numFpAluAccesses      3554732                       # Number of float alu accesses (Count)
system.timingCpu1.exec_context.thread_0.numVecAluAccesses            0                       # Number of vector alu accesses (Count)
system.timingCpu1.exec_context.thread_0.numCallsReturns      5370031                       # Number of times a function call or return occured (Count)
system.timingCpu1.exec_context.thread_0.numCondCtrlInsts   1296124010                       # Number of instructions that are conditional controls (Count)
system.timingCpu1.exec_context.thread_0.numIntInsts   9572811533                       # Number of integer instructions (Count)
system.timingCpu1.exec_context.thread_0.numFpInsts      3554732                       # Number of float instructions (Count)
system.timingCpu1.exec_context.thread_0.numVecInsts            0                       # Number of vector instructions (Count)
system.timingCpu1.exec_context.thread_0.numIntRegReads  11785720561                       # Number of times the integer registers were read (Count)
system.timingCpu1.exec_context.thread_0.numIntRegWrites   6477148457                       # Number of times the integer registers were written (Count)
system.timingCpu1.exec_context.thread_0.numFpRegReads      3875229                       # Number of times the floating registers were read (Count)
system.timingCpu1.exec_context.thread_0.numFpRegWrites      2301431                       # Number of times the floating registers were written (Count)
system.timingCpu1.exec_context.thread_0.numVecRegReads            0                       # Number of times the vector registers were read (Count)
system.timingCpu1.exec_context.thread_0.numVecRegWrites            0                       # Number of times the vector registers were written (Count)
system.timingCpu1.exec_context.thread_0.numVecPredRegReads            0                       # Number of times the predicate registers were read (Count)
system.timingCpu1.exec_context.thread_0.numVecPredRegWrites            0                       # Number of times the predicate registers were written (Count)
system.timingCpu1.exec_context.thread_0.numCCRegReads   9368173752                       # Number of times the CC registers were read (Count)
system.timingCpu1.exec_context.thread_0.numCCRegWrites   5017702593                       # Number of times the CC registers were written (Count)
system.timingCpu1.exec_context.thread_0.numMiscRegReads   3654713871                       # Number of times the Misc registers were read (Count)
system.timingCpu1.exec_context.thread_0.numMiscRegWrites       178548                       # Number of times the Misc registers were written (Count)
system.timingCpu1.exec_context.thread_0.numMemRefs    942838836                       # Number of memory refs (Count)
system.timingCpu1.exec_context.thread_0.numLoadInsts    785445222                       # Number of load instructions (Count)
system.timingCpu1.exec_context.thread_0.numStoreInsts    157393614                       # Number of store instructions (Count)
system.timingCpu1.exec_context.thread_0.numIdleCycles 1618159662.999676                       # Number of idle cycles (Cycle)
system.timingCpu1.exec_context.thread_0.numBusyCycles 18381840337.000324                       # Number of busy cycles (Cycle)
system.timingCpu1.exec_context.thread_0.notIdleFraction     0.919092                       # Percentage of non-idle cycles (Ratio)
system.timingCpu1.exec_context.thread_0.idleFraction     0.080908                       # Percentage of idle cycles (Ratio)
system.timingCpu1.exec_context.thread_0.numBranches   1357323750                       # Number of branches fetched (Count)
system.timingCpu1.exec_context.thread_0.statExecutedInstType::No_OpClass    163463442      1.68%      1.68% # Class of executed instruction. (Count)
system.timingCpu1.exec_context.thread_0.statExecutedInstType::IntAlu   8632523411     88.63%     90.31% # Class of executed instruction. (Count)
system.timingCpu1.exec_context.thread_0.statExecutedInstType::IntMult       148905      0.00%     90.31% # Class of executed instruction. (Count)
system.timingCpu1.exec_context.thread_0.statExecutedInstType::IntDiv       216142      0.00%     90.31% # Class of executed instruction. (Count)
system.timingCpu1.exec_context.thread_0.statExecutedInstType::FloatAdd           23      0.00%     90.31% # Class of executed instruction. (Count)
system.timingCpu1.exec_context.thread_0.statExecutedInstType::FloatCmp            0      0.00%     90.31% # Class of executed instruction. (Count)
system.timingCpu1.exec_context.thread_0.statExecutedInstType::FloatCvt          240      0.00%     90.31% # Class of executed instruction. (Count)
system.timingCpu1.exec_context.thread_0.statExecutedInstType::FloatMult            0      0.00%     90.31% # Class of executed instruction. (Count)
system.timingCpu1.exec_context.thread_0.statExecutedInstType::FloatMultAcc            0      0.00%     90.31% # Class of executed instruction. (Count)
system.timingCpu1.exec_context.thread_0.statExecutedInstType::FloatDiv            0      0.00%     90.31% # Class of executed instruction. (Count)
system.timingCpu1.exec_context.thread_0.statExecutedInstType::FloatMisc            0      0.00%     90.31% # Class of executed instruction. (Count)
system.timingCpu1.exec_context.thread_0.statExecutedInstType::FloatSqrt            0      0.00%     90.31% # Class of executed instruction. (Count)
system.timingCpu1.exec_context.thread_0.statExecutedInstType::SimdAdd       524322      0.01%     90.31% # Class of executed instruction. (Count)
system.timingCpu1.exec_context.thread_0.statExecutedInstType::SimdAddAcc            0      0.00%     90.31% # Class of executed instruction. (Count)
system.timingCpu1.exec_context.thread_0.statExecutedInstType::SimdAlu           52      0.00%     90.31% # Class of executed instruction. (Count)
system.timingCpu1.exec_context.thread_0.statExecutedInstType::SimdCmp            0      0.00%     90.31% # Class of executed instruction. (Count)
system.timingCpu1.exec_context.thread_0.statExecutedInstType::SimdCvt           68      0.00%     90.31% # Class of executed instruction. (Count)
system.timingCpu1.exec_context.thread_0.statExecutedInstType::SimdMisc           34      0.00%     90.31% # Class of executed instruction. (Count)
system.timingCpu1.exec_context.thread_0.statExecutedInstType::SimdMult            0      0.00%     90.31% # Class of executed instruction. (Count)
system.timingCpu1.exec_context.thread_0.statExecutedInstType::SimdMultAcc            0      0.00%     90.31% # Class of executed instruction. (Count)
system.timingCpu1.exec_context.thread_0.statExecutedInstType::SimdShift       524316      0.01%     90.32% # Class of executed instruction. (Count)
system.timingCpu1.exec_context.thread_0.statExecutedInstType::SimdShiftAcc            0      0.00%     90.32% # Class of executed instruction. (Count)
system.timingCpu1.exec_context.thread_0.statExecutedInstType::SimdDiv            0      0.00%     90.32% # Class of executed instruction. (Count)
system.timingCpu1.exec_context.thread_0.statExecutedInstType::SimdSqrt            0      0.00%     90.32% # Class of executed instruction. (Count)
system.timingCpu1.exec_context.thread_0.statExecutedInstType::SimdFloatAdd            0      0.00%     90.32% # Class of executed instruction. (Count)
system.timingCpu1.exec_context.thread_0.statExecutedInstType::SimdFloatAlu            0      0.00%     90.32% # Class of executed instruction. (Count)
system.timingCpu1.exec_context.thread_0.statExecutedInstType::SimdFloatCmp            0      0.00%     90.32% # Class of executed instruction. (Count)
system.timingCpu1.exec_context.thread_0.statExecutedInstType::SimdFloatCvt            0      0.00%     90.32% # Class of executed instruction. (Count)
system.timingCpu1.exec_context.thread_0.statExecutedInstType::SimdFloatDiv            0      0.00%     90.32% # Class of executed instruction. (Count)
system.timingCpu1.exec_context.thread_0.statExecutedInstType::SimdFloatMisc            0      0.00%     90.32% # Class of executed instruction. (Count)
system.timingCpu1.exec_context.thread_0.statExecutedInstType::SimdFloatMult            0      0.00%     90.32% # Class of executed instruction. (Count)
system.timingCpu1.exec_context.thread_0.statExecutedInstType::SimdFloatMultAcc            0      0.00%     90.32% # Class of executed instruction. (Count)
system.timingCpu1.exec_context.thread_0.statExecutedInstType::SimdFloatSqrt            0      0.00%     90.32% # Class of executed instruction. (Count)
system.timingCpu1.exec_context.thread_0.statExecutedInstType::SimdReduceAdd            0      0.00%     90.32% # Class of executed instruction. (Count)
system.timingCpu1.exec_context.thread_0.statExecutedInstType::SimdReduceAlu            0      0.00%     90.32% # Class of executed instruction. (Count)
system.timingCpu1.exec_context.thread_0.statExecutedInstType::SimdReduceCmp            0      0.00%     90.32% # Class of executed instruction. (Count)
system.timingCpu1.exec_context.thread_0.statExecutedInstType::SimdFloatReduceAdd            0      0.00%     90.32% # Class of executed instruction. (Count)
system.timingCpu1.exec_context.thread_0.statExecutedInstType::SimdFloatReduceCmp            0      0.00%     90.32% # Class of executed instruction. (Count)
system.timingCpu1.exec_context.thread_0.statExecutedInstType::SimdAes            0      0.00%     90.32% # Class of executed instruction. (Count)
system.timingCpu1.exec_context.thread_0.statExecutedInstType::SimdAesMix            0      0.00%     90.32% # Class of executed instruction. (Count)
system.timingCpu1.exec_context.thread_0.statExecutedInstType::SimdSha1Hash            0      0.00%     90.32% # Class of executed instruction. (Count)
system.timingCpu1.exec_context.thread_0.statExecutedInstType::SimdSha1Hash2            0      0.00%     90.32% # Class of executed instruction. (Count)
system.timingCpu1.exec_context.thread_0.statExecutedInstType::SimdSha256Hash            0      0.00%     90.32% # Class of executed instruction. (Count)
system.timingCpu1.exec_context.thread_0.statExecutedInstType::SimdSha256Hash2            0      0.00%     90.32% # Class of executed instruction. (Count)
system.timingCpu1.exec_context.thread_0.statExecutedInstType::SimdShaSigma2            0      0.00%     90.32% # Class of executed instruction. (Count)
system.timingCpu1.exec_context.thread_0.statExecutedInstType::SimdShaSigma3            0      0.00%     90.32% # Class of executed instruction. (Count)
system.timingCpu1.exec_context.thread_0.statExecutedInstType::SimdPredAlu            0      0.00%     90.32% # Class of executed instruction. (Count)
system.timingCpu1.exec_context.thread_0.statExecutedInstType::MemRead    784192583      8.05%     98.37% # Class of executed instruction. (Count)
system.timingCpu1.exec_context.thread_0.statExecutedInstType::MemWrite    156140587      1.60%     99.97% # Class of executed instruction. (Count)
system.timingCpu1.exec_context.thread_0.statExecutedInstType::FloatMemRead      1252639      0.01%     99.99% # Class of executed instruction. (Count)
system.timingCpu1.exec_context.thread_0.statExecutedInstType::FloatMemWrite      1253027      0.01%    100.00% # Class of executed instruction. (Count)
system.timingCpu1.exec_context.thread_0.statExecutedInstType::IprAccess            0      0.00%    100.00% # Class of executed instruction. (Count)
system.timingCpu1.exec_context.thread_0.statExecutedInstType::InstPrefetch            0      0.00%    100.00% # Class of executed instruction. (Count)
system.timingCpu1.exec_context.thread_0.statExecutedInstType::total   9740239791                       # Class of executed instruction. (Count)
system.timingCpu1.mmu.dtb.rdAccesses        790867401                       # TLB accesses on read requests (Count)
system.timingCpu1.mmu.dtb.wrAccesses        157644776                       # TLB accesses on write requests (Count)
system.timingCpu1.mmu.dtb.rdMisses            5360913                       # TLB misses on read requests (Count)
system.timingCpu1.mmu.dtb.wrMisses             185777                       # TLB misses on write requests (Count)
system.timingCpu1.mmu.dtb.walker.power_state.pwrStateResidencyTicks::UNDEFINED 153149273673500                       # Cumulative time (in ticks) in various power states (Tick)
system.timingCpu1.mmu.itb.rdAccesses                0                       # TLB accesses on read requests (Count)
system.timingCpu1.mmu.itb.wrAccesses       6642312001                       # TLB accesses on write requests (Count)
system.timingCpu1.mmu.itb.rdMisses                  0                       # TLB misses on read requests (Count)
system.timingCpu1.mmu.itb.wrMisses               7887                       # TLB misses on write requests (Count)
system.timingCpu1.mmu.itb.walker.power_state.pwrStateResidencyTicks::UNDEFINED 153149273673500                       # Cumulative time (in ticks) in various power states (Tick)
system.timingCpu1.power_state.numTransitions          824                       # Number of power state transitions (Count)
system.timingCpu1.power_state.ticksClkGated::samples          412                       # Distribution of time spent in the clock gated state (Tick)
system.timingCpu1.power_state.ticksClkGated::mean 981892999.393204                       # Distribution of time spent in the clock gated state (Tick)
system.timingCpu1.power_state.ticksClkGated::stdev 100275494.037941                       # Distribution of time spent in the clock gated state (Tick)
system.timingCpu1.power_state.ticksClkGated::1000-5e+10          412    100.00%    100.00% # Distribution of time spent in the clock gated state (Tick)
system.timingCpu1.power_state.ticksClkGated::min_value     54275750                       # Distribution of time spent in the clock gated state (Tick)
system.timingCpu1.power_state.ticksClkGated::max_value    998671750                       # Distribution of time spent in the clock gated state (Tick)
system.timingCpu1.power_state.ticksClkGated::total          412                       # Distribution of time spent in the clock gated state (Tick)
system.timingCpu1.power_state.pwrStateResidencyTicks::ON 4594317398500                       # Cumulative time (in ticks) in various power states (Tick)
system.timingCpu1.power_state.pwrStateResidencyTicks::CLK_GATED 404539915750                       # Cumulative time (in ticks) in various power states (Tick)
system.timingCpu1.power_state.pwrStateResidencyTicks::OFF 148150416359250                       # Cumulative time (in ticks) in various power states (Tick)
system.timingCpu1.thread_0.numInsts                 0                       # Number of Instructions committed (Count)
system.timingCpu1.thread_0.numOps                   0                       # Number of Ops committed (Count)
system.timingCpu1.thread_0.numMemRefs               0                       # Number of Memory References (Count)
system.workload.inst.arm                            0                       # number of arm instructions executed (Count)
system.workload.inst.quiesce                        0                       # number of quiesce instructions executed (Count)

---------- End Simulation Statistics   ----------
