
---------- Begin Simulation Statistics ----------
simSeconds                                   0.010000                       # Number of seconds simulated (Second)
simTicks                                  10000002644                       # Number of ticks simulated (Tick)
finalTick                                 10000002644                       # Number of ticks from beginning of simulation (restored from checkpoints and never reset) (Tick)
simFreq                                  1000000000000                       # The number of ticks per simulated second ((Tick/Second))
hostSeconds                                     44.83                       # Real time elapsed on the host (Second)
hostTickRate                                223054061                       # The number of ticks simulated per host second (ticks/s) ((Tick/Second))
hostMemory                                    3275888                       # Number of bytes of host memory used (Byte)
system.clk_domain.clock                           250                       # Clock period in ticks (Tick)
system.clk_domain.voltage_domain.voltage            1                       # Voltage in Volts (Volt)
system.far_mem_ctrl.priorityMinLatency   0.000000000000                       # per QoS priority minimum request to response latency (Second)
system.far_mem_ctrl.priorityMaxLatency   0.000000000000                       # per QoS priority maximum request to response latency (Second)
system.far_mem_ctrl.numReadWriteTurnArounds            0                       # Number of turnarounds from READ to WRITE (Count)
system.far_mem_ctrl.numWriteReadTurnArounds            0                       # Number of turnarounds from WRITE to READ (Count)
system.far_mem_ctrl.numStayReadState             2568                       # Number of times bus staying in READ state (Count)
system.far_mem_ctrl.numStayWriteState               0                       # Number of times bus staying in WRITE state (Count)
system.far_mem_ctrl.readReqs                        0                       # Number of read requests accepted (Count)
system.far_mem_ctrl.writeReqs                       0                       # Number of write requests accepted (Count)
system.far_mem_ctrl.readBursts                      0                       # Number of controller read bursts, including those serviced by the write queue (Count)
system.far_mem_ctrl.writeBursts                     0                       # Number of controller write bursts, including those merged in the write queue (Count)
system.far_mem_ctrl.servicedByWrQ                   0                       # Number of controller read bursts serviced by the write queue (Count)
system.far_mem_ctrl.mergedWrBursts                  0                       # Number of controller write bursts merged with an existing one (Count)
system.far_mem_ctrl.avgRdQLen                    0.00                       # Average read queue length when enqueuing ((Count/Tick))
system.far_mem_ctrl.avgWrQLen                    0.00                       # Average write queue length when enqueuing ((Count/Tick))
system.far_mem_ctrl.numRdRetry                      0                       # Number of times read queue was full causing retry (Count)
system.far_mem_ctrl.numWrRetry                      0                       # Number of times write queue was full causing retry (Count)
system.far_mem_ctrl.readPktSize::0                  0                       # Read request sizes (log2) (Count)
system.far_mem_ctrl.readPktSize::1                  0                       # Read request sizes (log2) (Count)
system.far_mem_ctrl.readPktSize::2                  0                       # Read request sizes (log2) (Count)
system.far_mem_ctrl.readPktSize::3                  0                       # Read request sizes (log2) (Count)
system.far_mem_ctrl.readPktSize::4                  0                       # Read request sizes (log2) (Count)
system.far_mem_ctrl.readPktSize::5                  0                       # Read request sizes (log2) (Count)
system.far_mem_ctrl.readPktSize::6                  0                       # Read request sizes (log2) (Count)
system.far_mem_ctrl.writePktSize::0                 0                       # Write request sizes (log2) (Count)
system.far_mem_ctrl.writePktSize::1                 0                       # Write request sizes (log2) (Count)
system.far_mem_ctrl.writePktSize::2                 0                       # Write request sizes (log2) (Count)
system.far_mem_ctrl.writePktSize::3                 0                       # Write request sizes (log2) (Count)
system.far_mem_ctrl.writePktSize::4                 0                       # Write request sizes (log2) (Count)
system.far_mem_ctrl.writePktSize::5                 0                       # Write request sizes (log2) (Count)
system.far_mem_ctrl.writePktSize::6                 0                       # Write request sizes (log2) (Count)
system.far_mem_ctrl.rdQLenPdf::0                    0                       # What read queue length does an incoming req see (Count)
system.far_mem_ctrl.rdQLenPdf::1                    0                       # What read queue length does an incoming req see (Count)
system.far_mem_ctrl.rdQLenPdf::2                    0                       # What read queue length does an incoming req see (Count)
system.far_mem_ctrl.rdQLenPdf::3                    0                       # What read queue length does an incoming req see (Count)
system.far_mem_ctrl.rdQLenPdf::4                    0                       # What read queue length does an incoming req see (Count)
system.far_mem_ctrl.rdQLenPdf::5                    0                       # What read queue length does an incoming req see (Count)
system.far_mem_ctrl.rdQLenPdf::6                    0                       # What read queue length does an incoming req see (Count)
system.far_mem_ctrl.rdQLenPdf::7                    0                       # What read queue length does an incoming req see (Count)
system.far_mem_ctrl.rdQLenPdf::8                    0                       # What read queue length does an incoming req see (Count)
system.far_mem_ctrl.rdQLenPdf::9                    0                       # What read queue length does an incoming req see (Count)
system.far_mem_ctrl.rdQLenPdf::10                   0                       # What read queue length does an incoming req see (Count)
system.far_mem_ctrl.rdQLenPdf::11                   0                       # What read queue length does an incoming req see (Count)
system.far_mem_ctrl.rdQLenPdf::12                   0                       # What read queue length does an incoming req see (Count)
system.far_mem_ctrl.rdQLenPdf::13                   0                       # What read queue length does an incoming req see (Count)
system.far_mem_ctrl.rdQLenPdf::14                   0                       # What read queue length does an incoming req see (Count)
system.far_mem_ctrl.rdQLenPdf::15                   0                       # What read queue length does an incoming req see (Count)
system.far_mem_ctrl.rdQLenPdf::16                   0                       # What read queue length does an incoming req see (Count)
system.far_mem_ctrl.rdQLenPdf::17                   0                       # What read queue length does an incoming req see (Count)
system.far_mem_ctrl.rdQLenPdf::18                   0                       # What read queue length does an incoming req see (Count)
system.far_mem_ctrl.rdQLenPdf::19                   0                       # What read queue length does an incoming req see (Count)
system.far_mem_ctrl.rdQLenPdf::20                   0                       # What read queue length does an incoming req see (Count)
system.far_mem_ctrl.rdQLenPdf::21                   0                       # What read queue length does an incoming req see (Count)
system.far_mem_ctrl.rdQLenPdf::22                   0                       # What read queue length does an incoming req see (Count)
system.far_mem_ctrl.rdQLenPdf::23                   0                       # What read queue length does an incoming req see (Count)
system.far_mem_ctrl.rdQLenPdf::24                   0                       # What read queue length does an incoming req see (Count)
system.far_mem_ctrl.rdQLenPdf::25                   0                       # What read queue length does an incoming req see (Count)
system.far_mem_ctrl.rdQLenPdf::26                   0                       # What read queue length does an incoming req see (Count)
system.far_mem_ctrl.rdQLenPdf::27                   0                       # What read queue length does an incoming req see (Count)
system.far_mem_ctrl.rdQLenPdf::28                   0                       # What read queue length does an incoming req see (Count)
system.far_mem_ctrl.rdQLenPdf::29                   0                       # What read queue length does an incoming req see (Count)
system.far_mem_ctrl.rdQLenPdf::30                   0                       # What read queue length does an incoming req see (Count)
system.far_mem_ctrl.rdQLenPdf::31                   0                       # What read queue length does an incoming req see (Count)
system.far_mem_ctrl.rdQLenPdf::32                   0                       # What read queue length does an incoming req see (Count)
system.far_mem_ctrl.rdQLenPdf::33                   0                       # What read queue length does an incoming req see (Count)
system.far_mem_ctrl.rdQLenPdf::34                   0                       # What read queue length does an incoming req see (Count)
system.far_mem_ctrl.rdQLenPdf::35                   0                       # What read queue length does an incoming req see (Count)
system.far_mem_ctrl.rdQLenPdf::36                   0                       # What read queue length does an incoming req see (Count)
system.far_mem_ctrl.rdQLenPdf::37                   0                       # What read queue length does an incoming req see (Count)
system.far_mem_ctrl.rdQLenPdf::38                   0                       # What read queue length does an incoming req see (Count)
system.far_mem_ctrl.rdQLenPdf::39                   0                       # What read queue length does an incoming req see (Count)
system.far_mem_ctrl.rdQLenPdf::40                   0                       # What read queue length does an incoming req see (Count)
system.far_mem_ctrl.rdQLenPdf::41                   0                       # What read queue length does an incoming req see (Count)
system.far_mem_ctrl.rdQLenPdf::42                   0                       # What read queue length does an incoming req see (Count)
system.far_mem_ctrl.rdQLenPdf::43                   0                       # What read queue length does an incoming req see (Count)
system.far_mem_ctrl.rdQLenPdf::44                   0                       # What read queue length does an incoming req see (Count)
system.far_mem_ctrl.rdQLenPdf::45                   0                       # What read queue length does an incoming req see (Count)
system.far_mem_ctrl.rdQLenPdf::46                   0                       # What read queue length does an incoming req see (Count)
system.far_mem_ctrl.rdQLenPdf::47                   0                       # What read queue length does an incoming req see (Count)
system.far_mem_ctrl.rdQLenPdf::48                   0                       # What read queue length does an incoming req see (Count)
system.far_mem_ctrl.rdQLenPdf::49                   0                       # What read queue length does an incoming req see (Count)
system.far_mem_ctrl.rdQLenPdf::50                   0                       # What read queue length does an incoming req see (Count)
system.far_mem_ctrl.rdQLenPdf::51                   0                       # What read queue length does an incoming req see (Count)
system.far_mem_ctrl.rdQLenPdf::52                   0                       # What read queue length does an incoming req see (Count)
system.far_mem_ctrl.rdQLenPdf::53                   0                       # What read queue length does an incoming req see (Count)
system.far_mem_ctrl.rdQLenPdf::54                   0                       # What read queue length does an incoming req see (Count)
system.far_mem_ctrl.rdQLenPdf::55                   0                       # What read queue length does an incoming req see (Count)
system.far_mem_ctrl.rdQLenPdf::56                   0                       # What read queue length does an incoming req see (Count)
system.far_mem_ctrl.rdQLenPdf::57                   0                       # What read queue length does an incoming req see (Count)
system.far_mem_ctrl.rdQLenPdf::58                   0                       # What read queue length does an incoming req see (Count)
system.far_mem_ctrl.rdQLenPdf::59                   0                       # What read queue length does an incoming req see (Count)
system.far_mem_ctrl.rdQLenPdf::60                   0                       # What read queue length does an incoming req see (Count)
system.far_mem_ctrl.rdQLenPdf::61                   0                       # What read queue length does an incoming req see (Count)
system.far_mem_ctrl.rdQLenPdf::62                   0                       # What read queue length does an incoming req see (Count)
system.far_mem_ctrl.rdQLenPdf::63                   0                       # What read queue length does an incoming req see (Count)
system.far_mem_ctrl.wrQLenPdf::0                    0                       # What write queue length does an incoming req see (Count)
system.far_mem_ctrl.wrQLenPdf::1                    0                       # What write queue length does an incoming req see (Count)
system.far_mem_ctrl.wrQLenPdf::2                    0                       # What write queue length does an incoming req see (Count)
system.far_mem_ctrl.wrQLenPdf::3                    0                       # What write queue length does an incoming req see (Count)
system.far_mem_ctrl.wrQLenPdf::4                    0                       # What write queue length does an incoming req see (Count)
system.far_mem_ctrl.wrQLenPdf::5                    0                       # What write queue length does an incoming req see (Count)
system.far_mem_ctrl.wrQLenPdf::6                    0                       # What write queue length does an incoming req see (Count)
system.far_mem_ctrl.wrQLenPdf::7                    0                       # What write queue length does an incoming req see (Count)
system.far_mem_ctrl.wrQLenPdf::8                    0                       # What write queue length does an incoming req see (Count)
system.far_mem_ctrl.wrQLenPdf::9                    0                       # What write queue length does an incoming req see (Count)
system.far_mem_ctrl.wrQLenPdf::10                   0                       # What write queue length does an incoming req see (Count)
system.far_mem_ctrl.wrQLenPdf::11                   0                       # What write queue length does an incoming req see (Count)
system.far_mem_ctrl.wrQLenPdf::12                   0                       # What write queue length does an incoming req see (Count)
system.far_mem_ctrl.wrQLenPdf::13                   0                       # What write queue length does an incoming req see (Count)
system.far_mem_ctrl.wrQLenPdf::14                   0                       # What write queue length does an incoming req see (Count)
system.far_mem_ctrl.wrQLenPdf::15                   0                       # What write queue length does an incoming req see (Count)
system.far_mem_ctrl.wrQLenPdf::16                   0                       # What write queue length does an incoming req see (Count)
system.far_mem_ctrl.wrQLenPdf::17                   0                       # What write queue length does an incoming req see (Count)
system.far_mem_ctrl.wrQLenPdf::18                   0                       # What write queue length does an incoming req see (Count)
system.far_mem_ctrl.wrQLenPdf::19                   0                       # What write queue length does an incoming req see (Count)
system.far_mem_ctrl.wrQLenPdf::20                   0                       # What write queue length does an incoming req see (Count)
system.far_mem_ctrl.wrQLenPdf::21                   0                       # What write queue length does an incoming req see (Count)
system.far_mem_ctrl.wrQLenPdf::22                   0                       # What write queue length does an incoming req see (Count)
system.far_mem_ctrl.wrQLenPdf::23                   0                       # What write queue length does an incoming req see (Count)
system.far_mem_ctrl.wrQLenPdf::24                   0                       # What write queue length does an incoming req see (Count)
system.far_mem_ctrl.wrQLenPdf::25                   0                       # What write queue length does an incoming req see (Count)
system.far_mem_ctrl.wrQLenPdf::26                   0                       # What write queue length does an incoming req see (Count)
system.far_mem_ctrl.wrQLenPdf::27                   0                       # What write queue length does an incoming req see (Count)
system.far_mem_ctrl.wrQLenPdf::28                   0                       # What write queue length does an incoming req see (Count)
system.far_mem_ctrl.wrQLenPdf::29                   0                       # What write queue length does an incoming req see (Count)
system.far_mem_ctrl.wrQLenPdf::30                   0                       # What write queue length does an incoming req see (Count)
system.far_mem_ctrl.wrQLenPdf::31                   0                       # What write queue length does an incoming req see (Count)
system.far_mem_ctrl.wrQLenPdf::32                   0                       # What write queue length does an incoming req see (Count)
system.far_mem_ctrl.wrQLenPdf::33                   0                       # What write queue length does an incoming req see (Count)
system.far_mem_ctrl.wrQLenPdf::34                   0                       # What write queue length does an incoming req see (Count)
system.far_mem_ctrl.wrQLenPdf::35                   0                       # What write queue length does an incoming req see (Count)
system.far_mem_ctrl.wrQLenPdf::36                   0                       # What write queue length does an incoming req see (Count)
system.far_mem_ctrl.wrQLenPdf::37                   0                       # What write queue length does an incoming req see (Count)
system.far_mem_ctrl.wrQLenPdf::38                   0                       # What write queue length does an incoming req see (Count)
system.far_mem_ctrl.wrQLenPdf::39                   0                       # What write queue length does an incoming req see (Count)
system.far_mem_ctrl.wrQLenPdf::40                   0                       # What write queue length does an incoming req see (Count)
system.far_mem_ctrl.wrQLenPdf::41                   0                       # What write queue length does an incoming req see (Count)
system.far_mem_ctrl.wrQLenPdf::42                   0                       # What write queue length does an incoming req see (Count)
system.far_mem_ctrl.wrQLenPdf::43                   0                       # What write queue length does an incoming req see (Count)
system.far_mem_ctrl.wrQLenPdf::44                   0                       # What write queue length does an incoming req see (Count)
system.far_mem_ctrl.wrQLenPdf::45                   0                       # What write queue length does an incoming req see (Count)
system.far_mem_ctrl.wrQLenPdf::46                   0                       # What write queue length does an incoming req see (Count)
system.far_mem_ctrl.wrQLenPdf::47                   0                       # What write queue length does an incoming req see (Count)
system.far_mem_ctrl.wrQLenPdf::48                   0                       # What write queue length does an incoming req see (Count)
system.far_mem_ctrl.wrQLenPdf::49                   0                       # What write queue length does an incoming req see (Count)
system.far_mem_ctrl.wrQLenPdf::50                   0                       # What write queue length does an incoming req see (Count)
system.far_mem_ctrl.wrQLenPdf::51                   0                       # What write queue length does an incoming req see (Count)
system.far_mem_ctrl.wrQLenPdf::52                   0                       # What write queue length does an incoming req see (Count)
system.far_mem_ctrl.wrQLenPdf::53                   0                       # What write queue length does an incoming req see (Count)
system.far_mem_ctrl.wrQLenPdf::54                   0                       # What write queue length does an incoming req see (Count)
system.far_mem_ctrl.wrQLenPdf::55                   0                       # What write queue length does an incoming req see (Count)
system.far_mem_ctrl.wrQLenPdf::56                   0                       # What write queue length does an incoming req see (Count)
system.far_mem_ctrl.wrQLenPdf::57                   0                       # What write queue length does an incoming req see (Count)
system.far_mem_ctrl.wrQLenPdf::58                   0                       # What write queue length does an incoming req see (Count)
system.far_mem_ctrl.wrQLenPdf::59                   0                       # What write queue length does an incoming req see (Count)
system.far_mem_ctrl.wrQLenPdf::60                   0                       # What write queue length does an incoming req see (Count)
system.far_mem_ctrl.wrQLenPdf::61                   0                       # What write queue length does an incoming req see (Count)
system.far_mem_ctrl.wrQLenPdf::62                   0                       # What write queue length does an incoming req see (Count)
system.far_mem_ctrl.wrQLenPdf::63                   0                       # What write queue length does an incoming req see (Count)
system.far_mem_ctrl.wrQLenPdf::64                   0                       # What write queue length does an incoming req see (Count)
system.far_mem_ctrl.wrQLenPdf::65                   0                       # What write queue length does an incoming req see (Count)
system.far_mem_ctrl.wrQLenPdf::66                   0                       # What write queue length does an incoming req see (Count)
system.far_mem_ctrl.wrQLenPdf::67                   0                       # What write queue length does an incoming req see (Count)
system.far_mem_ctrl.wrQLenPdf::68                   0                       # What write queue length does an incoming req see (Count)
system.far_mem_ctrl.wrQLenPdf::69                   0                       # What write queue length does an incoming req see (Count)
system.far_mem_ctrl.wrQLenPdf::70                   0                       # What write queue length does an incoming req see (Count)
system.far_mem_ctrl.wrQLenPdf::71                   0                       # What write queue length does an incoming req see (Count)
system.far_mem_ctrl.wrQLenPdf::72                   0                       # What write queue length does an incoming req see (Count)
system.far_mem_ctrl.wrQLenPdf::73                   0                       # What write queue length does an incoming req see (Count)
system.far_mem_ctrl.wrQLenPdf::74                   0                       # What write queue length does an incoming req see (Count)
system.far_mem_ctrl.wrQLenPdf::75                   0                       # What write queue length does an incoming req see (Count)
system.far_mem_ctrl.wrQLenPdf::76                   0                       # What write queue length does an incoming req see (Count)
system.far_mem_ctrl.wrQLenPdf::77                   0                       # What write queue length does an incoming req see (Count)
system.far_mem_ctrl.wrQLenPdf::78                   0                       # What write queue length does an incoming req see (Count)
system.far_mem_ctrl.wrQLenPdf::79                   0                       # What write queue length does an incoming req see (Count)
system.far_mem_ctrl.wrQLenPdf::80                   0                       # What write queue length does an incoming req see (Count)
system.far_mem_ctrl.wrQLenPdf::81                   0                       # What write queue length does an incoming req see (Count)
system.far_mem_ctrl.wrQLenPdf::82                   0                       # What write queue length does an incoming req see (Count)
system.far_mem_ctrl.wrQLenPdf::83                   0                       # What write queue length does an incoming req see (Count)
system.far_mem_ctrl.wrQLenPdf::84                   0                       # What write queue length does an incoming req see (Count)
system.far_mem_ctrl.wrQLenPdf::85                   0                       # What write queue length does an incoming req see (Count)
system.far_mem_ctrl.wrQLenPdf::86                   0                       # What write queue length does an incoming req see (Count)
system.far_mem_ctrl.wrQLenPdf::87                   0                       # What write queue length does an incoming req see (Count)
system.far_mem_ctrl.wrQLenPdf::88                   0                       # What write queue length does an incoming req see (Count)
system.far_mem_ctrl.wrQLenPdf::89                   0                       # What write queue length does an incoming req see (Count)
system.far_mem_ctrl.wrQLenPdf::90                   0                       # What write queue length does an incoming req see (Count)
system.far_mem_ctrl.wrQLenPdf::91                   0                       # What write queue length does an incoming req see (Count)
system.far_mem_ctrl.wrQLenPdf::92                   0                       # What write queue length does an incoming req see (Count)
system.far_mem_ctrl.wrQLenPdf::93                   0                       # What write queue length does an incoming req see (Count)
system.far_mem_ctrl.wrQLenPdf::94                   0                       # What write queue length does an incoming req see (Count)
system.far_mem_ctrl.wrQLenPdf::95                   0                       # What write queue length does an incoming req see (Count)
system.far_mem_ctrl.wrQLenPdf::96                   0                       # What write queue length does an incoming req see (Count)
system.far_mem_ctrl.wrQLenPdf::97                   0                       # What write queue length does an incoming req see (Count)
system.far_mem_ctrl.wrQLenPdf::98                   0                       # What write queue length does an incoming req see (Count)
system.far_mem_ctrl.wrQLenPdf::99                   0                       # What write queue length does an incoming req see (Count)
system.far_mem_ctrl.wrQLenPdf::100                  0                       # What write queue length does an incoming req see (Count)
system.far_mem_ctrl.wrQLenPdf::101                  0                       # What write queue length does an incoming req see (Count)
system.far_mem_ctrl.wrQLenPdf::102                  0                       # What write queue length does an incoming req see (Count)
system.far_mem_ctrl.wrQLenPdf::103                  0                       # What write queue length does an incoming req see (Count)
system.far_mem_ctrl.wrQLenPdf::104                  0                       # What write queue length does an incoming req see (Count)
system.far_mem_ctrl.wrQLenPdf::105                  0                       # What write queue length does an incoming req see (Count)
system.far_mem_ctrl.wrQLenPdf::106                  0                       # What write queue length does an incoming req see (Count)
system.far_mem_ctrl.wrQLenPdf::107                  0                       # What write queue length does an incoming req see (Count)
system.far_mem_ctrl.wrQLenPdf::108                  0                       # What write queue length does an incoming req see (Count)
system.far_mem_ctrl.wrQLenPdf::109                  0                       # What write queue length does an incoming req see (Count)
system.far_mem_ctrl.wrQLenPdf::110                  0                       # What write queue length does an incoming req see (Count)
system.far_mem_ctrl.wrQLenPdf::111                  0                       # What write queue length does an incoming req see (Count)
system.far_mem_ctrl.wrQLenPdf::112                  0                       # What write queue length does an incoming req see (Count)
system.far_mem_ctrl.wrQLenPdf::113                  0                       # What write queue length does an incoming req see (Count)
system.far_mem_ctrl.wrQLenPdf::114                  0                       # What write queue length does an incoming req see (Count)
system.far_mem_ctrl.wrQLenPdf::115                  0                       # What write queue length does an incoming req see (Count)
system.far_mem_ctrl.wrQLenPdf::116                  0                       # What write queue length does an incoming req see (Count)
system.far_mem_ctrl.wrQLenPdf::117                  0                       # What write queue length does an incoming req see (Count)
system.far_mem_ctrl.wrQLenPdf::118                  0                       # What write queue length does an incoming req see (Count)
system.far_mem_ctrl.wrQLenPdf::119                  0                       # What write queue length does an incoming req see (Count)
system.far_mem_ctrl.wrQLenPdf::120                  0                       # What write queue length does an incoming req see (Count)
system.far_mem_ctrl.wrQLenPdf::121                  0                       # What write queue length does an incoming req see (Count)
system.far_mem_ctrl.wrQLenPdf::122                  0                       # What write queue length does an incoming req see (Count)
system.far_mem_ctrl.wrQLenPdf::123                  0                       # What write queue length does an incoming req see (Count)
system.far_mem_ctrl.wrQLenPdf::124                  0                       # What write queue length does an incoming req see (Count)
system.far_mem_ctrl.wrQLenPdf::125                  0                       # What write queue length does an incoming req see (Count)
system.far_mem_ctrl.wrQLenPdf::126                  0                       # What write queue length does an incoming req see (Count)
system.far_mem_ctrl.wrQLenPdf::127                  0                       # What write queue length does an incoming req see (Count)
system.far_mem_ctrl.bytesReadWrQ                    0                       # Total number of bytes read from write queue (Byte)
system.far_mem_ctrl.bytesReadSys                    0                       # Total read bytes from the system interface side (Byte)
system.far_mem_ctrl.bytesWrittenSys                 0                       # Total written bytes from the system interface side (Byte)
system.far_mem_ctrl.avgRdBWSys             0.00000000                       # Average system read bandwidth in Byte/s ((Byte/Second))
system.far_mem_ctrl.avgWrBWSys             0.00000000                       # Average system write bandwidth in Byte/s ((Byte/Second))
system.far_mem_ctrl.totGap                          0                       # Total gap between requests (Tick)
system.far_mem_ctrl.avgGap                        nan                       # Average gap between requests ((Tick/Count))
system.far_mem_ctrl.dram.readBursts                 0                       # Number of DRAM read bursts (Count)
system.far_mem_ctrl.dram.writeBursts                0                       # Number of DRAM write bursts (Count)
system.far_mem_ctrl.dram.perBankRdBursts::0            0                       # Per bank write bursts (Count)
system.far_mem_ctrl.dram.perBankRdBursts::1            0                       # Per bank write bursts (Count)
system.far_mem_ctrl.dram.perBankRdBursts::2            0                       # Per bank write bursts (Count)
system.far_mem_ctrl.dram.perBankRdBursts::3            0                       # Per bank write bursts (Count)
system.far_mem_ctrl.dram.perBankRdBursts::4            0                       # Per bank write bursts (Count)
system.far_mem_ctrl.dram.perBankRdBursts::5            0                       # Per bank write bursts (Count)
system.far_mem_ctrl.dram.perBankRdBursts::6            0                       # Per bank write bursts (Count)
system.far_mem_ctrl.dram.perBankRdBursts::7            0                       # Per bank write bursts (Count)
system.far_mem_ctrl.dram.perBankRdBursts::8            0                       # Per bank write bursts (Count)
system.far_mem_ctrl.dram.perBankRdBursts::9            0                       # Per bank write bursts (Count)
system.far_mem_ctrl.dram.perBankRdBursts::10            0                       # Per bank write bursts (Count)
system.far_mem_ctrl.dram.perBankRdBursts::11            0                       # Per bank write bursts (Count)
system.far_mem_ctrl.dram.perBankRdBursts::12            0                       # Per bank write bursts (Count)
system.far_mem_ctrl.dram.perBankRdBursts::13            0                       # Per bank write bursts (Count)
system.far_mem_ctrl.dram.perBankRdBursts::14            0                       # Per bank write bursts (Count)
system.far_mem_ctrl.dram.perBankRdBursts::15            0                       # Per bank write bursts (Count)
system.far_mem_ctrl.dram.perBankRdBursts::16            0                       # Per bank write bursts (Count)
system.far_mem_ctrl.dram.perBankRdBursts::17            0                       # Per bank write bursts (Count)
system.far_mem_ctrl.dram.perBankRdBursts::18            0                       # Per bank write bursts (Count)
system.far_mem_ctrl.dram.perBankRdBursts::19            0                       # Per bank write bursts (Count)
system.far_mem_ctrl.dram.perBankRdBursts::20            0                       # Per bank write bursts (Count)
system.far_mem_ctrl.dram.perBankRdBursts::21            0                       # Per bank write bursts (Count)
system.far_mem_ctrl.dram.perBankRdBursts::22            0                       # Per bank write bursts (Count)
system.far_mem_ctrl.dram.perBankRdBursts::23            0                       # Per bank write bursts (Count)
system.far_mem_ctrl.dram.perBankRdBursts::24            0                       # Per bank write bursts (Count)
system.far_mem_ctrl.dram.perBankRdBursts::25            0                       # Per bank write bursts (Count)
system.far_mem_ctrl.dram.perBankRdBursts::26            0                       # Per bank write bursts (Count)
system.far_mem_ctrl.dram.perBankRdBursts::27            0                       # Per bank write bursts (Count)
system.far_mem_ctrl.dram.perBankRdBursts::28            0                       # Per bank write bursts (Count)
system.far_mem_ctrl.dram.perBankRdBursts::29            0                       # Per bank write bursts (Count)
system.far_mem_ctrl.dram.perBankRdBursts::30            0                       # Per bank write bursts (Count)
system.far_mem_ctrl.dram.perBankRdBursts::31            0                       # Per bank write bursts (Count)
system.far_mem_ctrl.dram.perBankWrBursts::0            0                       # Per bank write bursts (Count)
system.far_mem_ctrl.dram.perBankWrBursts::1            0                       # Per bank write bursts (Count)
system.far_mem_ctrl.dram.perBankWrBursts::2            0                       # Per bank write bursts (Count)
system.far_mem_ctrl.dram.perBankWrBursts::3            0                       # Per bank write bursts (Count)
system.far_mem_ctrl.dram.perBankWrBursts::4            0                       # Per bank write bursts (Count)
system.far_mem_ctrl.dram.perBankWrBursts::5            0                       # Per bank write bursts (Count)
system.far_mem_ctrl.dram.perBankWrBursts::6            0                       # Per bank write bursts (Count)
system.far_mem_ctrl.dram.perBankWrBursts::7            0                       # Per bank write bursts (Count)
system.far_mem_ctrl.dram.perBankWrBursts::8            0                       # Per bank write bursts (Count)
system.far_mem_ctrl.dram.perBankWrBursts::9            0                       # Per bank write bursts (Count)
system.far_mem_ctrl.dram.perBankWrBursts::10            0                       # Per bank write bursts (Count)
system.far_mem_ctrl.dram.perBankWrBursts::11            0                       # Per bank write bursts (Count)
system.far_mem_ctrl.dram.perBankWrBursts::12            0                       # Per bank write bursts (Count)
system.far_mem_ctrl.dram.perBankWrBursts::13            0                       # Per bank write bursts (Count)
system.far_mem_ctrl.dram.perBankWrBursts::14            0                       # Per bank write bursts (Count)
system.far_mem_ctrl.dram.perBankWrBursts::15            0                       # Per bank write bursts (Count)
system.far_mem_ctrl.dram.perBankWrBursts::16            0                       # Per bank write bursts (Count)
system.far_mem_ctrl.dram.perBankWrBursts::17            0                       # Per bank write bursts (Count)
system.far_mem_ctrl.dram.perBankWrBursts::18            0                       # Per bank write bursts (Count)
system.far_mem_ctrl.dram.perBankWrBursts::19            0                       # Per bank write bursts (Count)
system.far_mem_ctrl.dram.perBankWrBursts::20            0                       # Per bank write bursts (Count)
system.far_mem_ctrl.dram.perBankWrBursts::21            0                       # Per bank write bursts (Count)
system.far_mem_ctrl.dram.perBankWrBursts::22            0                       # Per bank write bursts (Count)
system.far_mem_ctrl.dram.perBankWrBursts::23            0                       # Per bank write bursts (Count)
system.far_mem_ctrl.dram.perBankWrBursts::24            0                       # Per bank write bursts (Count)
system.far_mem_ctrl.dram.perBankWrBursts::25            0                       # Per bank write bursts (Count)
system.far_mem_ctrl.dram.perBankWrBursts::26            0                       # Per bank write bursts (Count)
system.far_mem_ctrl.dram.perBankWrBursts::27            0                       # Per bank write bursts (Count)
system.far_mem_ctrl.dram.perBankWrBursts::28            0                       # Per bank write bursts (Count)
system.far_mem_ctrl.dram.perBankWrBursts::29            0                       # Per bank write bursts (Count)
system.far_mem_ctrl.dram.perBankWrBursts::30            0                       # Per bank write bursts (Count)
system.far_mem_ctrl.dram.perBankWrBursts::31            0                       # Per bank write bursts (Count)
system.far_mem_ctrl.dram.totQLat                    0                       # Total ticks spent queuing (Tick)
system.far_mem_ctrl.dram.totBusLat                  0                       # Total ticks spent in databus transfers (Tick)
system.far_mem_ctrl.dram.totMemAccLat               0                       # Total ticks spent from burst creation until serviced by the DRAM (Tick)
system.far_mem_ctrl.dram.avgQLat                  nan                       # Average queueing delay per DRAM burst ((Tick/Count))
system.far_mem_ctrl.dram.avgBusLat                nan                       # Average bus latency per DRAM burst ((Tick/Count))
system.far_mem_ctrl.dram.avgMemAccLat             nan                       # Average memory access latency per DRAM burst ((Tick/Count))
system.far_mem_ctrl.dram.readRowHits                0                       # Number of row buffer hits during reads (Count)
system.far_mem_ctrl.dram.writeRowHits               0                       # Number of row buffer hits during writes (Count)
system.far_mem_ctrl.dram.readRowHitRate           nan                       # Row buffer hit rate for reads (Ratio)
system.far_mem_ctrl.dram.writeRowHitRate          nan                       # Row buffer hit rate for writes (Ratio)
system.far_mem_ctrl.dram.bytesRead                  0                       # Total bytes read (Byte)
system.far_mem_ctrl.dram.bytesWritten               0                       # Total bytes written (Byte)
system.far_mem_ctrl.dram.avgRdBW                    0                       # Average DRAM read bandwidth in MiBytes/s ((Byte/Second))
system.far_mem_ctrl.dram.avgWrBW                    0                       # Average DRAM write bandwidth in MiBytes/s ((Byte/Second))
system.far_mem_ctrl.dram.peakBW              19207.00                       # Theoretical peak bandwidth in MiByte/s ((Byte/Second))
system.far_mem_ctrl.dram.busUtil                 0.00                       # Data bus utilization in percentage (Ratio)
system.far_mem_ctrl.dram.busUtilRead             0.00                       # Data bus utilization in percentage for reads (Ratio)
system.far_mem_ctrl.dram.busUtilWrite            0.00                       # Data bus utilization in percentage for writes (Ratio)
system.far_mem_ctrl.dram.pageHitRate              nan                       # Row buffer hit rate, read and write combined (Ratio)
system.far_mem_ctrl.dram.power_state.pwrStateResidencyTicks::UNDEFINED  10000002644                       # Cumulative time (in ticks) in various power states (Tick)
system.far_mem_ctrl.dram.rank0.actEnergy            0                       # Energy for activate commands per rank (pJ) (Joule)
system.far_mem_ctrl.dram.rank0.preEnergy            0                       # Energy for precharge commands per rank (pJ) (Joule)
system.far_mem_ctrl.dram.rank0.readEnergy            0                       # Energy for read commands per rank (pJ) (Joule)
system.far_mem_ctrl.dram.rank0.writeEnergy            0                       # Energy for write commands per rank (pJ) (Joule)
system.far_mem_ctrl.dram.rank0.refreshEnergy 1778824873.324749                       # Energy for refresh commands per rank (pJ) (Joule)
system.far_mem_ctrl.dram.rank0.actBackEnergy 367118181.964789                       # Energy for active background per rank (pJ) (Joule)
system.far_mem_ctrl.dram.rank0.preBackEnergy 6245922711.167933                       # Energy for precharge background per rank (pJ) (Joule)
system.far_mem_ctrl.dram.rank0.actPowerDownEnergy            0                       # Energy for active power-down per rank (pJ) (Joule)
system.far_mem_ctrl.dram.rank0.prePowerDownEnergy            0                       # Energy for precharge power-down per rank (pJ) (Joule)
system.far_mem_ctrl.dram.rank0.selfRefreshEnergy            0                       # Energy for self refresh per rank (pJ) (Joule)
system.far_mem_ctrl.dram.rank0.totalEnergy 8391865766.457493                       # Total energy per rank (pJ) (Joule)
system.far_mem_ctrl.dram.rank0.averagePower   839.186355                       # Core power per rank (mW) (Watt)
system.far_mem_ctrl.dram.rank0.totalIdleTime            0                       # Total Idle time Per DRAM Rank (Tick)
system.far_mem_ctrl.dram.rank0.pwrStateTime::IDLE   9550602644                       # Time in different power states (Tick)
system.far_mem_ctrl.dram.rank0.pwrStateTime::REF    449400000                       # Time in different power states (Tick)
system.far_mem_ctrl.dram.rank0.pwrStateTime::SREF            0                       # Time in different power states (Tick)
system.far_mem_ctrl.dram.rank0.pwrStateTime::PRE_PDN            0                       # Time in different power states (Tick)
system.far_mem_ctrl.dram.rank0.pwrStateTime::ACT            0                       # Time in different power states (Tick)
system.far_mem_ctrl.dram.rank0.pwrStateTime::ACT_PDN            0                       # Time in different power states (Tick)
system.far_mem_ctrl.dram.rank1.actEnergy            0                       # Energy for activate commands per rank (pJ) (Joule)
system.far_mem_ctrl.dram.rank1.preEnergy            0                       # Energy for precharge commands per rank (pJ) (Joule)
system.far_mem_ctrl.dram.rank1.readEnergy            0                       # Energy for read commands per rank (pJ) (Joule)
system.far_mem_ctrl.dram.rank1.writeEnergy            0                       # Energy for write commands per rank (pJ) (Joule)
system.far_mem_ctrl.dram.rank1.refreshEnergy 1778824873.324749                       # Energy for refresh commands per rank (pJ) (Joule)
system.far_mem_ctrl.dram.rank1.actBackEnergy 367118181.964789                       # Energy for active background per rank (pJ) (Joule)
system.far_mem_ctrl.dram.rank1.preBackEnergy 6245922711.167933                       # Energy for precharge background per rank (pJ) (Joule)
system.far_mem_ctrl.dram.rank1.actPowerDownEnergy            0                       # Energy for active power-down per rank (pJ) (Joule)
system.far_mem_ctrl.dram.rank1.prePowerDownEnergy            0                       # Energy for precharge power-down per rank (pJ) (Joule)
system.far_mem_ctrl.dram.rank1.selfRefreshEnergy            0                       # Energy for self refresh per rank (pJ) (Joule)
system.far_mem_ctrl.dram.rank1.totalEnergy 8391865766.457493                       # Total energy per rank (pJ) (Joule)
system.far_mem_ctrl.dram.rank1.averagePower   839.186355                       # Core power per rank (mW) (Watt)
system.far_mem_ctrl.dram.rank1.totalIdleTime            0                       # Total Idle time Per DRAM Rank (Tick)
system.far_mem_ctrl.dram.rank1.pwrStateTime::IDLE   9550602644                       # Time in different power states (Tick)
system.far_mem_ctrl.dram.rank1.pwrStateTime::REF    449400000                       # Time in different power states (Tick)
system.far_mem_ctrl.dram.rank1.pwrStateTime::SREF            0                       # Time in different power states (Tick)
system.far_mem_ctrl.dram.rank1.pwrStateTime::PRE_PDN            0                       # Time in different power states (Tick)
system.far_mem_ctrl.dram.rank1.pwrStateTime::ACT            0                       # Time in different power states (Tick)
system.far_mem_ctrl.dram.rank1.pwrStateTime::ACT_PDN            0                       # Time in different power states (Tick)
system.far_mem_ctrl.power_state.pwrStateResidencyTicks::UNDEFINED  10000002644                       # Cumulative time (in ticks) in various power states (Tick)
system.generator.numSuppressed                      0                       # Number of suppressed packets to non-memory space (Count)
system.generator.numPackets                   2756999                       # Number of packets generated (Count)
system.generator.numRetries                   2755768                       # Number of retries (Count)
system.generator.retryTicks                9998768644                       # Time spent waiting due to back-pressure (Tick)
system.generator.bytesRead                          0                       # Number of bytes read (Byte)
system.generator.bytesWritten               176447552                       # Number of bytes written (Byte)
system.generator.totalReadLatency                   0                       # Total latency of read requests (Tick)
system.generator.totalWriteLatency        65461801322                       # Total latency of write requests (Tick)
system.generator.totalReads                         0                       # Total num of reads (Count)
system.generator.totalWrites                  2756993                       # Total num of writes (Count)
system.generator.avgReadLatency                   nan                       # Avg latency of read requests ((Tick/Count))
system.generator.avgWriteLatency         23743.912778                       # Avg latency of write requests ((Tick/Count))
system.generator.readBW                             0                       # Read bandwidth ((Byte/Second))
system.generator.writeBW                 17644750534.727959                       # Write bandwidth ((Byte/Second))
system.generator.power_state.pwrStateResidencyTicks::UNDEFINED  10000002644                       # Cumulative time (in ticks) in various power states (Tick)
system.loc_mem_ctrl.avgPriority_writebacks::samples   2756743.00                       # Average QoS priority value for accepted requests (Count)
system.loc_mem_ctrl.priorityMinLatency   0.000000052476                       # per QoS priority minimum request to response latency (Second)
system.loc_mem_ctrl.priorityMaxLatency   0.000009005846                       # per QoS priority maximum request to response latency (Second)
system.loc_mem_ctrl.numReadWriteTurnArounds            0                       # Number of turnarounds from READ to WRITE (Count)
system.loc_mem_ctrl.numWriteReadTurnArounds            0                       # Number of turnarounds from WRITE to READ (Count)
system.loc_mem_ctrl.numStayReadState          2757964                       # Number of times bus staying in READ state (Count)
system.loc_mem_ctrl.numStayWriteState               0                       # Number of times bus staying in WRITE state (Count)
system.loc_mem_ctrl.readReqs                        0                       # Number of read requests accepted (Count)
system.loc_mem_ctrl.writeReqs                 2756746                       # Number of write requests accepted (Count)
system.loc_mem_ctrl.readBursts                      0                       # Number of controller read bursts, including those serviced by the write queue (Count)
system.loc_mem_ctrl.writeBursts               2756746                       # Number of controller write bursts, including those merged in the write queue (Count)
system.loc_mem_ctrl.servicedByWrQ                   0                       # Number of controller read bursts serviced by the write queue (Count)
system.loc_mem_ctrl.mergedWrBursts                  3                       # Number of controller write bursts merged with an existing one (Count)
system.loc_mem_ctrl.avgRdQLen                    0.00                       # Average read queue length when enqueuing ((Count/Tick))
system.loc_mem_ctrl.avgWrQLen                  128.00                       # Average write queue length when enqueuing ((Count/Tick))
system.loc_mem_ctrl.numRdRetry                      0                       # Number of times read queue was full causing retry (Count)
system.loc_mem_ctrl.numWrRetry                3334141                       # Number of times write queue was full causing retry (Count)
system.loc_mem_ctrl.readPktSize::0                  0                       # Read request sizes (log2) (Count)
system.loc_mem_ctrl.readPktSize::1                  0                       # Read request sizes (log2) (Count)
system.loc_mem_ctrl.readPktSize::2                  0                       # Read request sizes (log2) (Count)
system.loc_mem_ctrl.readPktSize::3                  0                       # Read request sizes (log2) (Count)
system.loc_mem_ctrl.readPktSize::4                  0                       # Read request sizes (log2) (Count)
system.loc_mem_ctrl.readPktSize::5                  0                       # Read request sizes (log2) (Count)
system.loc_mem_ctrl.readPktSize::6                  0                       # Read request sizes (log2) (Count)
system.loc_mem_ctrl.writePktSize::0                 0                       # Write request sizes (log2) (Count)
system.loc_mem_ctrl.writePktSize::1                 0                       # Write request sizes (log2) (Count)
system.loc_mem_ctrl.writePktSize::2                 0                       # Write request sizes (log2) (Count)
system.loc_mem_ctrl.writePktSize::3                 0                       # Write request sizes (log2) (Count)
system.loc_mem_ctrl.writePktSize::4                 0                       # Write request sizes (log2) (Count)
system.loc_mem_ctrl.writePktSize::5                 0                       # Write request sizes (log2) (Count)
system.loc_mem_ctrl.writePktSize::6           2756746                       # Write request sizes (log2) (Count)
system.loc_mem_ctrl.rdQLenPdf::0                    0                       # What read queue length does an incoming req see (Count)
system.loc_mem_ctrl.rdQLenPdf::1                    0                       # What read queue length does an incoming req see (Count)
system.loc_mem_ctrl.rdQLenPdf::2                    0                       # What read queue length does an incoming req see (Count)
system.loc_mem_ctrl.rdQLenPdf::3                    0                       # What read queue length does an incoming req see (Count)
system.loc_mem_ctrl.rdQLenPdf::4                    0                       # What read queue length does an incoming req see (Count)
system.loc_mem_ctrl.rdQLenPdf::5                    0                       # What read queue length does an incoming req see (Count)
system.loc_mem_ctrl.rdQLenPdf::6                    0                       # What read queue length does an incoming req see (Count)
system.loc_mem_ctrl.rdQLenPdf::7                    0                       # What read queue length does an incoming req see (Count)
system.loc_mem_ctrl.rdQLenPdf::8                    0                       # What read queue length does an incoming req see (Count)
system.loc_mem_ctrl.rdQLenPdf::9                    0                       # What read queue length does an incoming req see (Count)
system.loc_mem_ctrl.rdQLenPdf::10                   0                       # What read queue length does an incoming req see (Count)
system.loc_mem_ctrl.rdQLenPdf::11                   0                       # What read queue length does an incoming req see (Count)
system.loc_mem_ctrl.rdQLenPdf::12                   0                       # What read queue length does an incoming req see (Count)
system.loc_mem_ctrl.rdQLenPdf::13                   0                       # What read queue length does an incoming req see (Count)
system.loc_mem_ctrl.rdQLenPdf::14                   0                       # What read queue length does an incoming req see (Count)
system.loc_mem_ctrl.rdQLenPdf::15                   0                       # What read queue length does an incoming req see (Count)
system.loc_mem_ctrl.rdQLenPdf::16                   0                       # What read queue length does an incoming req see (Count)
system.loc_mem_ctrl.rdQLenPdf::17                   0                       # What read queue length does an incoming req see (Count)
system.loc_mem_ctrl.rdQLenPdf::18                   0                       # What read queue length does an incoming req see (Count)
system.loc_mem_ctrl.rdQLenPdf::19                   0                       # What read queue length does an incoming req see (Count)
system.loc_mem_ctrl.rdQLenPdf::20                   0                       # What read queue length does an incoming req see (Count)
system.loc_mem_ctrl.rdQLenPdf::21                   0                       # What read queue length does an incoming req see (Count)
system.loc_mem_ctrl.rdQLenPdf::22                   0                       # What read queue length does an incoming req see (Count)
system.loc_mem_ctrl.rdQLenPdf::23                   0                       # What read queue length does an incoming req see (Count)
system.loc_mem_ctrl.rdQLenPdf::24                   0                       # What read queue length does an incoming req see (Count)
system.loc_mem_ctrl.rdQLenPdf::25                   0                       # What read queue length does an incoming req see (Count)
system.loc_mem_ctrl.rdQLenPdf::26                   0                       # What read queue length does an incoming req see (Count)
system.loc_mem_ctrl.rdQLenPdf::27                   0                       # What read queue length does an incoming req see (Count)
system.loc_mem_ctrl.rdQLenPdf::28                   0                       # What read queue length does an incoming req see (Count)
system.loc_mem_ctrl.rdQLenPdf::29                   0                       # What read queue length does an incoming req see (Count)
system.loc_mem_ctrl.rdQLenPdf::30                   0                       # What read queue length does an incoming req see (Count)
system.loc_mem_ctrl.rdQLenPdf::31                   0                       # What read queue length does an incoming req see (Count)
system.loc_mem_ctrl.rdQLenPdf::32                   0                       # What read queue length does an incoming req see (Count)
system.loc_mem_ctrl.rdQLenPdf::33                   0                       # What read queue length does an incoming req see (Count)
system.loc_mem_ctrl.rdQLenPdf::34                   0                       # What read queue length does an incoming req see (Count)
system.loc_mem_ctrl.rdQLenPdf::35                   0                       # What read queue length does an incoming req see (Count)
system.loc_mem_ctrl.rdQLenPdf::36                   0                       # What read queue length does an incoming req see (Count)
system.loc_mem_ctrl.rdQLenPdf::37                   0                       # What read queue length does an incoming req see (Count)
system.loc_mem_ctrl.rdQLenPdf::38                   0                       # What read queue length does an incoming req see (Count)
system.loc_mem_ctrl.rdQLenPdf::39                   0                       # What read queue length does an incoming req see (Count)
system.loc_mem_ctrl.rdQLenPdf::40                   0                       # What read queue length does an incoming req see (Count)
system.loc_mem_ctrl.rdQLenPdf::41                   0                       # What read queue length does an incoming req see (Count)
system.loc_mem_ctrl.rdQLenPdf::42                   0                       # What read queue length does an incoming req see (Count)
system.loc_mem_ctrl.rdQLenPdf::43                   0                       # What read queue length does an incoming req see (Count)
system.loc_mem_ctrl.rdQLenPdf::44                   0                       # What read queue length does an incoming req see (Count)
system.loc_mem_ctrl.rdQLenPdf::45                   0                       # What read queue length does an incoming req see (Count)
system.loc_mem_ctrl.rdQLenPdf::46                   0                       # What read queue length does an incoming req see (Count)
system.loc_mem_ctrl.rdQLenPdf::47                   0                       # What read queue length does an incoming req see (Count)
system.loc_mem_ctrl.rdQLenPdf::48                   0                       # What read queue length does an incoming req see (Count)
system.loc_mem_ctrl.rdQLenPdf::49                   0                       # What read queue length does an incoming req see (Count)
system.loc_mem_ctrl.rdQLenPdf::50                   0                       # What read queue length does an incoming req see (Count)
system.loc_mem_ctrl.rdQLenPdf::51                   0                       # What read queue length does an incoming req see (Count)
system.loc_mem_ctrl.rdQLenPdf::52                   0                       # What read queue length does an incoming req see (Count)
system.loc_mem_ctrl.rdQLenPdf::53                   0                       # What read queue length does an incoming req see (Count)
system.loc_mem_ctrl.rdQLenPdf::54                   0                       # What read queue length does an incoming req see (Count)
system.loc_mem_ctrl.rdQLenPdf::55                   0                       # What read queue length does an incoming req see (Count)
system.loc_mem_ctrl.rdQLenPdf::56                   0                       # What read queue length does an incoming req see (Count)
system.loc_mem_ctrl.rdQLenPdf::57                   0                       # What read queue length does an incoming req see (Count)
system.loc_mem_ctrl.rdQLenPdf::58                   0                       # What read queue length does an incoming req see (Count)
system.loc_mem_ctrl.rdQLenPdf::59                   0                       # What read queue length does an incoming req see (Count)
system.loc_mem_ctrl.rdQLenPdf::60                   0                       # What read queue length does an incoming req see (Count)
system.loc_mem_ctrl.rdQLenPdf::61                   0                       # What read queue length does an incoming req see (Count)
system.loc_mem_ctrl.rdQLenPdf::62                   0                       # What read queue length does an incoming req see (Count)
system.loc_mem_ctrl.rdQLenPdf::63                   0                       # What read queue length does an incoming req see (Count)
system.loc_mem_ctrl.wrQLenPdf::0                    1                       # What write queue length does an incoming req see (Count)
system.loc_mem_ctrl.wrQLenPdf::1                    1                       # What write queue length does an incoming req see (Count)
system.loc_mem_ctrl.wrQLenPdf::2                    1                       # What write queue length does an incoming req see (Count)
system.loc_mem_ctrl.wrQLenPdf::3                    1                       # What write queue length does an incoming req see (Count)
system.loc_mem_ctrl.wrQLenPdf::4                    1                       # What write queue length does an incoming req see (Count)
system.loc_mem_ctrl.wrQLenPdf::5                    1                       # What write queue length does an incoming req see (Count)
system.loc_mem_ctrl.wrQLenPdf::6                    1                       # What write queue length does an incoming req see (Count)
system.loc_mem_ctrl.wrQLenPdf::7                    1                       # What write queue length does an incoming req see (Count)
system.loc_mem_ctrl.wrQLenPdf::8                    1                       # What write queue length does an incoming req see (Count)
system.loc_mem_ctrl.wrQLenPdf::9                    1                       # What write queue length does an incoming req see (Count)
system.loc_mem_ctrl.wrQLenPdf::10                   1                       # What write queue length does an incoming req see (Count)
system.loc_mem_ctrl.wrQLenPdf::11                   1                       # What write queue length does an incoming req see (Count)
system.loc_mem_ctrl.wrQLenPdf::12                   1                       # What write queue length does an incoming req see (Count)
system.loc_mem_ctrl.wrQLenPdf::13                   1                       # What write queue length does an incoming req see (Count)
system.loc_mem_ctrl.wrQLenPdf::14                   1                       # What write queue length does an incoming req see (Count)
system.loc_mem_ctrl.wrQLenPdf::15                   1                       # What write queue length does an incoming req see (Count)
system.loc_mem_ctrl.wrQLenPdf::16                   1                       # What write queue length does an incoming req see (Count)
system.loc_mem_ctrl.wrQLenPdf::17                   1                       # What write queue length does an incoming req see (Count)
system.loc_mem_ctrl.wrQLenPdf::18                   1                       # What write queue length does an incoming req see (Count)
system.loc_mem_ctrl.wrQLenPdf::19                   1                       # What write queue length does an incoming req see (Count)
system.loc_mem_ctrl.wrQLenPdf::20                   1                       # What write queue length does an incoming req see (Count)
system.loc_mem_ctrl.wrQLenPdf::21                   1                       # What write queue length does an incoming req see (Count)
system.loc_mem_ctrl.wrQLenPdf::22                   1                       # What write queue length does an incoming req see (Count)
system.loc_mem_ctrl.wrQLenPdf::23                   1                       # What write queue length does an incoming req see (Count)
system.loc_mem_ctrl.wrQLenPdf::24                   1                       # What write queue length does an incoming req see (Count)
system.loc_mem_ctrl.wrQLenPdf::25                   1                       # What write queue length does an incoming req see (Count)
system.loc_mem_ctrl.wrQLenPdf::26                   1                       # What write queue length does an incoming req see (Count)
system.loc_mem_ctrl.wrQLenPdf::27                   1                       # What write queue length does an incoming req see (Count)
system.loc_mem_ctrl.wrQLenPdf::28                   1                       # What write queue length does an incoming req see (Count)
system.loc_mem_ctrl.wrQLenPdf::29                   1                       # What write queue length does an incoming req see (Count)
system.loc_mem_ctrl.wrQLenPdf::30                   1                       # What write queue length does an incoming req see (Count)
system.loc_mem_ctrl.wrQLenPdf::31                   1                       # What write queue length does an incoming req see (Count)
system.loc_mem_ctrl.wrQLenPdf::32                   1                       # What write queue length does an incoming req see (Count)
system.loc_mem_ctrl.wrQLenPdf::33                   1                       # What write queue length does an incoming req see (Count)
system.loc_mem_ctrl.wrQLenPdf::34                   1                       # What write queue length does an incoming req see (Count)
system.loc_mem_ctrl.wrQLenPdf::35                   1                       # What write queue length does an incoming req see (Count)
system.loc_mem_ctrl.wrQLenPdf::36                   1                       # What write queue length does an incoming req see (Count)
system.loc_mem_ctrl.wrQLenPdf::37                   1                       # What write queue length does an incoming req see (Count)
system.loc_mem_ctrl.wrQLenPdf::38                   1                       # What write queue length does an incoming req see (Count)
system.loc_mem_ctrl.wrQLenPdf::39                   1                       # What write queue length does an incoming req see (Count)
system.loc_mem_ctrl.wrQLenPdf::40                   1                       # What write queue length does an incoming req see (Count)
system.loc_mem_ctrl.wrQLenPdf::41                   1                       # What write queue length does an incoming req see (Count)
system.loc_mem_ctrl.wrQLenPdf::42                   1                       # What write queue length does an incoming req see (Count)
system.loc_mem_ctrl.wrQLenPdf::43                   1                       # What write queue length does an incoming req see (Count)
system.loc_mem_ctrl.wrQLenPdf::44                   1                       # What write queue length does an incoming req see (Count)
system.loc_mem_ctrl.wrQLenPdf::45                   1                       # What write queue length does an incoming req see (Count)
system.loc_mem_ctrl.wrQLenPdf::46                   1                       # What write queue length does an incoming req see (Count)
system.loc_mem_ctrl.wrQLenPdf::47                   1                       # What write queue length does an incoming req see (Count)
system.loc_mem_ctrl.wrQLenPdf::48                   1                       # What write queue length does an incoming req see (Count)
system.loc_mem_ctrl.wrQLenPdf::49                   1                       # What write queue length does an incoming req see (Count)
system.loc_mem_ctrl.wrQLenPdf::50                   1                       # What write queue length does an incoming req see (Count)
system.loc_mem_ctrl.wrQLenPdf::51                   1                       # What write queue length does an incoming req see (Count)
system.loc_mem_ctrl.wrQLenPdf::52                   1                       # What write queue length does an incoming req see (Count)
system.loc_mem_ctrl.wrQLenPdf::53                   1                       # What write queue length does an incoming req see (Count)
system.loc_mem_ctrl.wrQLenPdf::54                   1                       # What write queue length does an incoming req see (Count)
system.loc_mem_ctrl.wrQLenPdf::55                   1                       # What write queue length does an incoming req see (Count)
system.loc_mem_ctrl.wrQLenPdf::56                   1                       # What write queue length does an incoming req see (Count)
system.loc_mem_ctrl.wrQLenPdf::57                   1                       # What write queue length does an incoming req see (Count)
system.loc_mem_ctrl.wrQLenPdf::58                   1                       # What write queue length does an incoming req see (Count)
system.loc_mem_ctrl.wrQLenPdf::59                   1                       # What write queue length does an incoming req see (Count)
system.loc_mem_ctrl.wrQLenPdf::60                   2                       # What write queue length does an incoming req see (Count)
system.loc_mem_ctrl.wrQLenPdf::61                   3                       # What write queue length does an incoming req see (Count)
system.loc_mem_ctrl.wrQLenPdf::62                   2                       # What write queue length does an incoming req see (Count)
system.loc_mem_ctrl.wrQLenPdf::63                   3                       # What write queue length does an incoming req see (Count)
system.loc_mem_ctrl.wrQLenPdf::64                   2                       # What write queue length does an incoming req see (Count)
system.loc_mem_ctrl.wrQLenPdf::65                   1                       # What write queue length does an incoming req see (Count)
system.loc_mem_ctrl.wrQLenPdf::66                   2                       # What write queue length does an incoming req see (Count)
system.loc_mem_ctrl.wrQLenPdf::67                   1                       # What write queue length does an incoming req see (Count)
system.loc_mem_ctrl.wrQLenPdf::68                   2                       # What write queue length does an incoming req see (Count)
system.loc_mem_ctrl.wrQLenPdf::69                   1                       # What write queue length does an incoming req see (Count)
system.loc_mem_ctrl.wrQLenPdf::70                   2                       # What write queue length does an incoming req see (Count)
system.loc_mem_ctrl.wrQLenPdf::71                   1                       # What write queue length does an incoming req see (Count)
system.loc_mem_ctrl.wrQLenPdf::72                   1                       # What write queue length does an incoming req see (Count)
system.loc_mem_ctrl.wrQLenPdf::73                   2                       # What write queue length does an incoming req see (Count)
system.loc_mem_ctrl.wrQLenPdf::74                   1                       # What write queue length does an incoming req see (Count)
system.loc_mem_ctrl.wrQLenPdf::75                   2                       # What write queue length does an incoming req see (Count)
system.loc_mem_ctrl.wrQLenPdf::76                   1                       # What write queue length does an incoming req see (Count)
system.loc_mem_ctrl.wrQLenPdf::77                   2                       # What write queue length does an incoming req see (Count)
system.loc_mem_ctrl.wrQLenPdf::78                   1                       # What write queue length does an incoming req see (Count)
system.loc_mem_ctrl.wrQLenPdf::79                   1                       # What write queue length does an incoming req see (Count)
system.loc_mem_ctrl.wrQLenPdf::80                   2                       # What write queue length does an incoming req see (Count)
system.loc_mem_ctrl.wrQLenPdf::81                   1                       # What write queue length does an incoming req see (Count)
system.loc_mem_ctrl.wrQLenPdf::82                   1                       # What write queue length does an incoming req see (Count)
system.loc_mem_ctrl.wrQLenPdf::83                   1                       # What write queue length does an incoming req see (Count)
system.loc_mem_ctrl.wrQLenPdf::84                   2                       # What write queue length does an incoming req see (Count)
system.loc_mem_ctrl.wrQLenPdf::85                   1                       # What write queue length does an incoming req see (Count)
system.loc_mem_ctrl.wrQLenPdf::86                   2                       # What write queue length does an incoming req see (Count)
system.loc_mem_ctrl.wrQLenPdf::87                   1                       # What write queue length does an incoming req see (Count)
system.loc_mem_ctrl.wrQLenPdf::88                   2                       # What write queue length does an incoming req see (Count)
system.loc_mem_ctrl.wrQLenPdf::89                   1                       # What write queue length does an incoming req see (Count)
system.loc_mem_ctrl.wrQLenPdf::90                   1                       # What write queue length does an incoming req see (Count)
system.loc_mem_ctrl.wrQLenPdf::91                   2                       # What write queue length does an incoming req see (Count)
system.loc_mem_ctrl.wrQLenPdf::92                   1                       # What write queue length does an incoming req see (Count)
system.loc_mem_ctrl.wrQLenPdf::93                   2                       # What write queue length does an incoming req see (Count)
system.loc_mem_ctrl.wrQLenPdf::94                   1                       # What write queue length does an incoming req see (Count)
system.loc_mem_ctrl.wrQLenPdf::95                   2                       # What write queue length does an incoming req see (Count)
system.loc_mem_ctrl.wrQLenPdf::96                   1                       # What write queue length does an incoming req see (Count)
system.loc_mem_ctrl.wrQLenPdf::97                   1                       # What write queue length does an incoming req see (Count)
system.loc_mem_ctrl.wrQLenPdf::98                   2                       # What write queue length does an incoming req see (Count)
system.loc_mem_ctrl.wrQLenPdf::99                   1                       # What write queue length does an incoming req see (Count)
system.loc_mem_ctrl.wrQLenPdf::100                  2                       # What write queue length does an incoming req see (Count)
system.loc_mem_ctrl.wrQLenPdf::101                  1                       # What write queue length does an incoming req see (Count)
system.loc_mem_ctrl.wrQLenPdf::102                  2                       # What write queue length does an incoming req see (Count)
system.loc_mem_ctrl.wrQLenPdf::103                  1                       # What write queue length does an incoming req see (Count)
system.loc_mem_ctrl.wrQLenPdf::104                  1                       # What write queue length does an incoming req see (Count)
system.loc_mem_ctrl.wrQLenPdf::105                  2                       # What write queue length does an incoming req see (Count)
system.loc_mem_ctrl.wrQLenPdf::106                  1                       # What write queue length does an incoming req see (Count)
system.loc_mem_ctrl.wrQLenPdf::107                  2                       # What write queue length does an incoming req see (Count)
system.loc_mem_ctrl.wrQLenPdf::108                  1                       # What write queue length does an incoming req see (Count)
system.loc_mem_ctrl.wrQLenPdf::109                  2                       # What write queue length does an incoming req see (Count)
system.loc_mem_ctrl.wrQLenPdf::110                  1                       # What write queue length does an incoming req see (Count)
system.loc_mem_ctrl.wrQLenPdf::111                  1                       # What write queue length does an incoming req see (Count)
system.loc_mem_ctrl.wrQLenPdf::112                  2                       # What write queue length does an incoming req see (Count)
system.loc_mem_ctrl.wrQLenPdf::113                  1                       # What write queue length does an incoming req see (Count)
system.loc_mem_ctrl.wrQLenPdf::114                  2                       # What write queue length does an incoming req see (Count)
system.loc_mem_ctrl.wrQLenPdf::115                  1                       # What write queue length does an incoming req see (Count)
system.loc_mem_ctrl.wrQLenPdf::116                  2                       # What write queue length does an incoming req see (Count)
system.loc_mem_ctrl.wrQLenPdf::117                  1                       # What write queue length does an incoming req see (Count)
system.loc_mem_ctrl.wrQLenPdf::118                  1                       # What write queue length does an incoming req see (Count)
system.loc_mem_ctrl.wrQLenPdf::119                  2                       # What write queue length does an incoming req see (Count)
system.loc_mem_ctrl.wrQLenPdf::120                  1                       # What write queue length does an incoming req see (Count)
system.loc_mem_ctrl.wrQLenPdf::121                  1                       # What write queue length does an incoming req see (Count)
system.loc_mem_ctrl.wrQLenPdf::122                  1                       # What write queue length does an incoming req see (Count)
system.loc_mem_ctrl.wrQLenPdf::123                  2                       # What write queue length does an incoming req see (Count)
system.loc_mem_ctrl.wrQLenPdf::124               1285                       # What write queue length does an incoming req see (Count)
system.loc_mem_ctrl.wrQLenPdf::125               2570                       # What write queue length does an incoming req see (Count)
system.loc_mem_ctrl.wrQLenPdf::126               1285                       # What write queue length does an incoming req see (Count)
system.loc_mem_ctrl.wrQLenPdf::127            2751448                       # What write queue length does an incoming req see (Count)
system.loc_mem_ctrl.rdPerTurnAround::samples            1                       # Reads before turning the bus around for writes (Count)
system.loc_mem_ctrl.rdPerTurnAround::stdev          nan                       # Reads before turning the bus around for writes (Count)
system.loc_mem_ctrl.rdPerTurnAround::0              1    100.00%    100.00% # Reads before turning the bus around for writes (Count)
system.loc_mem_ctrl.rdPerTurnAround::total            1                       # Reads before turning the bus around for writes (Count)
system.loc_mem_ctrl.bytesReadWrQ                    0                       # Total number of bytes read from write queue (Byte)
system.loc_mem_ctrl.bytesReadSys                    0                       # Total read bytes from the system interface side (Byte)
system.loc_mem_ctrl.bytesWrittenSys         176431744                       # Total written bytes from the system interface side (Byte)
system.loc_mem_ctrl.avgRdBWSys             0.00000000                       # Average system read bandwidth in Byte/s ((Byte/Second))
system.loc_mem_ctrl.avgWrBWSys           17643169735.14592361                       # Average system write bandwidth in Byte/s ((Byte/Second))
system.loc_mem_ctrl.totGap                10000001640                       # Total gap between requests (Tick)
system.loc_mem_ctrl.avgGap                    3627.47                       # Average gap between requests ((Tick/Count))
system.loc_mem_ctrl.requestorWriteBytes::writebacks    176423360                       # Per-requestor bytes write to memory (Byte)
system.loc_mem_ctrl.requestorWriteRate::writebacks 17642331335.367595672607                       # Per-requestor bytes write to memory rate ((Byte/Second))
[...]
system.loc_mem_ctrl.dram.perBankWrBursts::17        86151                       # Per bank write bursts (Count)
system.loc_mem_ctrl.dram.perBankWrBursts::18        85837                       # Per bank write bursts (Count)
system.loc_mem_ctrl.dram.perBankWrBursts::19        85948                       # Per bank write bursts (Count)
system.loc_mem_ctrl.dram.perBankWrBursts::20        86155                       # Per bank write bursts (Count)
system.loc_mem_ctrl.dram.perBankWrBursts::21        85889                       # Per bank write bursts (Count)
system.loc_mem_ctrl.dram.perBankWrBursts::22        86617                       # Per bank write bursts (Count)
system.loc_mem_ctrl.dram.perBankWrBursts::23        86230                       # Per bank write bursts (Count)
system.loc_mem_ctrl.dram.perBankWrBursts::24        85792                       # Per bank write bursts (Count)
system.loc_mem_ctrl.dram.perBankWrBursts::25        86118                       # Per bank write bursts (Count)
system.loc_mem_ctrl.dram.perBankWrBursts::26        85787                       # Per bank write bursts (Count)
system.loc_mem_ctrl.dram.perBankWrBursts::27        86389                       # Per bank write bursts (Count)
system.loc_mem_ctrl.dram.perBankWrBursts::28        86457                       # Per bank write bursts (Count)
system.loc_mem_ctrl.dram.perBankWrBursts::29        85864                       # Per bank write bursts (Count)
system.loc_mem_ctrl.dram.perBankWrBursts::30        85961                       # Per bank write bursts (Count)
system.loc_mem_ctrl.dram.perBankWrBursts::31        86723                       # Per bank write bursts (Count)
system.loc_mem_ctrl.dram.totQLat                    0                       # Total ticks spent queuing (Tick)
system.loc_mem_ctrl.dram.totBusLat                  0                       # Total ticks spent in databus transfers (Tick)
system.loc_mem_ctrl.dram.totMemAccLat               0                       # Total ticks spent from burst creation until serviced by the DRAM (Tick)
system.loc_mem_ctrl.dram.avgQLat                  nan                       # Average queueing delay per DRAM burst ((Tick/Count))
system.loc_mem_ctrl.dram.avgBusLat                nan                       # Average bus latency per DRAM burst ((Tick/Count))
system.loc_mem_ctrl.dram.avgMemAccLat             nan                       # Average memory access latency per DRAM burst ((Tick/Count))
system.loc_mem_ctrl.dram.readRowHits                0                       # Number of row buffer hits during reads (Count)
system.loc_mem_ctrl.dram.writeRowHits             964                       # Number of row buffer hits during writes (Count)
system.loc_mem_ctrl.dram.readRowHitRate           nan                       # Row buffer hit rate for reads (Ratio)
system.loc_mem_ctrl.dram.writeRowHitRate         0.03                       # Row buffer hit rate for writes (Ratio)
system.loc_mem_ctrl.dram.bytesPerActivate::samples      2755645                       # Bytes accessed per row activation (Byte)
system.loc_mem_ctrl.dram.bytesPerActivate::mean    64.022389                       # Bytes accessed per row activation (Byte)
system.loc_mem_ctrl.dram.bytesPerActivate::gmean    64.015521                       # Bytes accessed per row activation (Byte)
system.loc_mem_ctrl.dram.bytesPerActivate::stdev     1.196826                       # Bytes accessed per row activation (Byte)
system.loc_mem_ctrl.dram.bytesPerActivate::64-79      2754681     99.97%     99.97% # Bytes accessed per row activation (Byte)
system.loc_mem_ctrl.dram.bytesPerActivate::128-143          964      0.03%    100.00% # Bytes accessed per row activation (Byte)
system.loc_mem_ctrl.dram.bytesPerActivate::total      2755645                       # Bytes accessed per row activation (Byte)
system.loc_mem_ctrl.dram.bytesRead                  0                       # Total bytes read (Byte)
system.loc_mem_ctrl.dram.bytesWritten       176423360                       # Total bytes written (Byte)
system.loc_mem_ctrl.dram.avgRdBW                    0                       # Average DRAM read bandwidth in MiBytes/s ((Byte/Second))
system.loc_mem_ctrl.dram.avgWrBW         17642.331335                       # Average DRAM write bandwidth in MiBytes/s ((Byte/Second))
system.loc_mem_ctrl.dram.peakBW              19207.00                       # Theoretical peak bandwidth in MiByte/s ((Byte/Second))
system.loc_mem_ctrl.dram.busUtil                91.85                       # Data bus utilization in percentage (Ratio)
system.loc_mem_ctrl.dram.busUtilRead             0.00                       # Data bus utilization in percentage for reads (Ratio)
system.loc_mem_ctrl.dram.busUtilWrite           91.85                       # Data bus utilization in percentage for writes (Ratio)
system.loc_mem_ctrl.dram.pageHitRate             0.03                       # Row buffer hit rate, read and write combined (Ratio)
system.loc_mem_ctrl.dram.power_state.pwrStateResidencyTicks::UNDEFINED  10000002644                       # Cumulative time (in ticks) in various power states (Tick)
system.loc_mem_ctrl.dram.rank0.actEnergy 4298089356.287992                       # Energy for activate commands per rank (pJ) (Joule)
system.loc_mem_ctrl.dram.rank0.preEnergy 5714200793.044799                       # Energy for precharge commands per rank (pJ) (Joule)
system.loc_mem_ctrl.dram.rank0.readEnergy            0                       # Energy for read commands per rank (pJ) (Joule)
system.loc_mem_ctrl.dram.rank0.writeEnergy 5181601649.952007                       # Energy for write commands per rank (pJ) (Joule)
system.loc_mem_ctrl.dram.rank0.refreshEnergy 1778824873.324749                       # Energy for refresh commands per rank (pJ) (Joule)
system.loc_mem_ctrl.dram.rank0.actBackEnergy 8453285808.609586                       # Energy for active background per rank (pJ) (Joule)
system.loc_mem_ctrl.dram.rank0.preBackEnergy 32822161.881600                       # Energy for precharge background per rank (pJ) (Joule)
system.loc_mem_ctrl.dram.rank0.actPowerDownEnergy            0                       # Energy for active power-down per rank (pJ) (Joule)
system.loc_mem_ctrl.dram.rank0.prePowerDownEnergy            0                       # Energy for precharge power-down per rank (pJ) (Joule)
system.loc_mem_ctrl.dram.rank0.selfRefreshEnergy            0                       # Energy for self refresh per rank (pJ) (Joule)
system.loc_mem_ctrl.dram.rank0.totalEnergy 25458824643.100822                       # Total energy per rank (pJ) (Joule)
system.loc_mem_ctrl.dram.rank0.averagePower  2545.881791                       # Core power per rank (mW) (Watt)
system.loc_mem_ctrl.dram.rank0.totalIdleTime            0                       # Total Idle time Per DRAM Rank (Tick)
system.loc_mem_ctrl.dram.rank0.pwrStateTime::IDLE     14803724                       # Time in different power states (Tick)
system.loc_mem_ctrl.dram.rank0.pwrStateTime::REF    449400000                       # Time in different power states (Tick)
system.loc_mem_ctrl.dram.rank0.pwrStateTime::SREF            0                       # Time in different power states (Tick)
system.loc_mem_ctrl.dram.rank0.pwrStateTime::PRE_PDN            0                       # Time in different power states (Tick)
system.loc_mem_ctrl.dram.rank0.pwrStateTime::ACT   9535798920                       # Time in different power states (Tick)
system.loc_mem_ctrl.dram.rank0.pwrStateTime::ACT_PDN            0                       # Time in different power states (Tick)
system.loc_mem_ctrl.dram.rank1.actEnergy 4296102711.264002                       # Energy for activate commands per rank (pJ) (Joule)
system.loc_mem_ctrl.dram.rank1.preEnergy 5711580305.659196                       # Energy for precharge commands per rank (pJ) (Joule)
system.loc_mem_ctrl.dram.rank1.readEnergy            0                       # Energy for read commands per rank (pJ) (Joule)
system.loc_mem_ctrl.dram.rank1.writeEnergy 5179094733.120003                       # Energy for write commands per rank (pJ) (Joule)
system.loc_mem_ctrl.dram.rank1.refreshEnergy 1778824873.324749                       # Energy for refresh commands per rank (pJ) (Joule)
system.loc_mem_ctrl.dram.rank1.actBackEnergy 8452769175.345590                       # Energy for active background per rank (pJ) (Joule)
system.loc_mem_ctrl.dram.rank1.preBackEnergy 33219123.033600                       # Energy for precharge background per rank (pJ) (Joule)
system.loc_mem_ctrl.dram.rank1.actPowerDownEnergy            0                       # Energy for active power-down per rank (pJ) (Joule)
system.loc_mem_ctrl.dram.rank1.prePowerDownEnergy            0                       # Energy for precharge power-down per rank (pJ) (Joule)
system.loc_mem_ctrl.dram.rank1.selfRefreshEnergy            0                       # Energy for self refresh per rank (pJ) (Joule)
system.loc_mem_ctrl.dram.rank1.totalEnergy 25451590921.747204                       # Total energy per rank (pJ) (Joule)
system.loc_mem_ctrl.dram.rank1.averagePower  2545.158419                       # Core power per rank (mW) (Watt)
system.loc_mem_ctrl.dram.rank1.totalIdleTime            0                       # Total Idle time Per DRAM Rank (Tick)
system.loc_mem_ctrl.dram.rank1.pwrStateTime::IDLE     15411028                       # Time in different power states (Tick)
system.loc_mem_ctrl.dram.rank1.pwrStateTime::REF    449400000                       # Time in different power states (Tick)
system.loc_mem_ctrl.dram.rank1.pwrStateTime::SREF            0                       # Time in different power states (Tick)
system.loc_mem_ctrl.dram.rank1.pwrStateTime::PRE_PDN            0                       # Time in different power states (Tick)
system.loc_mem_ctrl.dram.rank1.pwrStateTime::ACT   9535191616                       # Time in different power states (Tick)
system.loc_mem_ctrl.dram.rank1.pwrStateTime::ACT_PDN            0                       # Time in different power states (Tick)
system.loc_mem_ctrl.power_state.pwrStateResidencyTicks::UNDEFINED  10000002644                       # Cumulative time (in ticks) in various power states (Tick)
system.mem_ctrl.bytesWritten::generator     176447936                       # Number of bytes written to this memory (Byte)
system.mem_ctrl.bytesWritten::total         176447936                       # Number of bytes written to this memory (Byte)
system.mem_ctrl.numWrites::generator          2756999                       # Number of write requests responded to by this memory (Count)
system.mem_ctrl.numWrites::total              2756999                       # Number of write requests responded to by this memory (Count)
system.mem_ctrl.bwWrite::generator        17644788935                       # Write bandwidth from this memory ((Byte/Second))
system.mem_ctrl.bwWrite::total            17644788935                       # Write bandwidth from this memory ((Byte/Second))
system.mem_ctrl.bwTotal::generator        17644788935                       # Total bandwidth to/from this memory ((Byte/Second))
system.mem_ctrl.bwTotal::total            17644788935                       # Total bandwidth to/from this memory ((Byte/Second))
system.mem_ctrl.readReqs                            0                       # Number of read requests accepted (Count)
system.mem_ctrl.writeReqs                     2756999                       # Number of write requests accepted (Count)
system.mem_ctrl.servicedByWrQ                       0                       # Number of controller read bursts serviced by the write queue (Count)
system.mem_ctrl.mergedWrBursts                     13                       # Number of controller write bursts merged with an existing one (Count)
system.mem_ctrl.numRdRetry                          0                       # Number of times read queue was full causing retry (Count)
system.mem_ctrl.numWrRetry                    2755768                       # Number of times write queue was full causing retry (Count)
system.mem_ctrl.readPktSize::0                      0                       # Read request sizes (log2) (Count)
system.mem_ctrl.readPktSize::1                      0                       # Read request sizes (log2) (Count)
system.mem_ctrl.readPktSize::2                      0                       # Read request sizes (log2) (Count)
system.mem_ctrl.readPktSize::3                      0                       # Read request sizes (log2) (Count)
system.mem_ctrl.readPktSize::4                      0                       # Read request sizes (log2) (Count)
system.mem_ctrl.readPktSize::5                      0                       # Read request sizes (log2) (Count)
system.mem_ctrl.readPktSize::6                      0                       # Read request sizes (log2) (Count)
system.mem_ctrl.writePktSize::0                     0                       # Write request sizes (log2) (Count)
system.mem_ctrl.writePktSize::1                     0                       # Write request sizes (log2) (Count)
system.mem_ctrl.writePktSize::2                     0                       # Write request sizes (log2) (Count)
system.mem_ctrl.writePktSize::3                     0                       # Write request sizes (log2) (Count)
system.mem_ctrl.writePktSize::4                     0                       # Write request sizes (log2) (Count)
system.mem_ctrl.writePktSize::5                     0                       # Write request sizes (log2) (Count)
system.mem_ctrl.writePktSize::6               2756999                       # Write request sizes (log2) (Count)
system.mem_ctrl.bytesReadWrQ                        0                       # Total number of bytes read from write queue (Byte)
system.mem_ctrl.bytesReadSys                        0                       # Total read bytes from the system interface side (Byte)
system.mem_ctrl.bytesWrittenSys             176447936                       # Total written bytes from the system interface side (Byte)
system.mem_ctrl.avgRdBWSys                 0.00000000                       # Average system read bandwidth in Byte/s ((Byte/Second))
system.mem_ctrl.avgWrBWSys               17644788934.71780396                       # Average system write bandwidth in Byte/s ((Byte/Second))
system.mem_ctrl.totGap                   15915079433329360896                       # Total gap between requests (Tick)
system.mem_ctrl.avgGap                   5772609795407.75                       # Average gap between requests ((Tick/Count))
system.mem_ctrl.avgORBLen                    255.9915                       # Average ORB length ((Count/Tick))
system.mem_ctrl.avgLocRdQLenStrt                 0.00                       # Average local read queue length ((Count/Tick))
system.mem_ctrl.avgLocWrQLenStrt               252.37                       # Average local write queue length ((Count/Tick))
system.mem_ctrl.avgFarRdQLenStrt                 0.00                       # Average far read queue length ((Count/Tick))
system.mem_ctrl.avgFarWrQLenStrt                 0.00                       # Average far write queue length ((Count/Tick))
system.mem_ctrl.avgLocRdQLenEnq                  0.00                       # Average local read queue length when enqueuing ((Count/Tick))
system.mem_ctrl.avgLocWrQLenEnq                253.37                       # Average local write queue length when enqueuing ((Count/Tick))
system.mem_ctrl.avgFarRdQLenEnq                  0.00                       # Average far read queue length when enqueuing ((Count/Tick))
system.mem_ctrl.avgFarWrQLenEnq                  0.00                       # Average far write queue length when enqueuing ((Count/Tick))
system.mem_ctrl.numWrBacks                          0                       # Total number of write backs from DRAM cache to main memory (Unspecified)
system.mem_ctrl.totNumConf                        712                       # Total number of packets conflicted on DRAM cache (Unspecified)
system.mem_ctrl.totNumORBFull                 2755768                       # Total number of packets ORB full (Unspecified)
system.mem_ctrl.totNumCRBFull                       0                       # Total number of packets conflicted yet couldn't enter confBuffer (Unspecified)
system.mem_ctrl.maxNumConf                          2                       # Maximum number of packets conflicted on DRAM cache (Unspecified)
system.mem_ctrl.sentLocRdPort                       0                       # stat (Unspecified)
system.mem_ctrl.sentLocWrPort                 2756746                       # stat (Unspecified)
system.mem_ctrl.failedLocRdPort                     0                       # stat (Unspecified)
system.mem_ctrl.failedLocWrPort               3334141                       # stat (Unspecified)
system.mem_ctrl.recvdRdPort                         0                       # stat (Unspecified)
system.mem_ctrl.sentFarRdPort                       0                       # stat (Unspecified)
system.mem_ctrl.sentFarWrPort                       0                       # stat (Unspecified)
system.mem_ctrl.failedFarRdPort                     0                       # stat (Unspecified)
system.mem_ctrl.failedFarWrPort                     0                       # stat (Unspecified)
system.mem_ctrl.totPktsServiceTime         2558159786                       # stat (Unspecified)
system.mem_ctrl.totPktsORBTime           13783000752999                       # stat (Unspecified)
system.mem_ctrl.totTimeFarRdtoSend                  0                       # stat (Unspecified)
system.mem_ctrl.totTimeFarRdtoRecv                  0                       # stat (Unspecified)
system.mem_ctrl.totTimeFarWrtoSend                  0                       # stat (Unspecified)
system.mem_ctrl.totTimeInLocRead                    0                       # stat (Unspecified)
system.mem_ctrl.totTimeInLocWrite          2557836447                       # stat (Unspecified)
system.mem_ctrl.totTimeInFarRead                    0                       # stat (Unspecified)
system.mem_ctrl.numTotHits                    2756999                       # stat (Unspecified)
system.mem_ctrl.numTotMisses                        0                       # stat (Unspecified)
system.mem_ctrl.numColdMisses                       0                       # stat (Unspecified)
system.mem_ctrl.numHotMisses                        0                       # stat (Unspecified)
system.mem_ctrl.numRdMissClean                      0                       # stat (Unspecified)
system.mem_ctrl.numRdMissDirty                      0                       # stat (Unspecified)
system.mem_ctrl.numRdHit                            0                       # stat (Unspecified)
system.mem_ctrl.numWrMissClean                      0                       # stat (Unspecified)
system.mem_ctrl.numWrMissDirty                      0                       # stat (Unspecified)
system.mem_ctrl.numWrHit                      2756999                       # stat (Unspecified)
system.mem_ctrl.numRdHitDirty                       0                       # stat (Unspecified)
system.mem_ctrl.numRdHitClean                       0                       # stat (Unspecified)
system.mem_ctrl.numWrHitDirty                 1784110                       # stat (Unspecified)
system.mem_ctrl.numWrHitClean                  972889                       # stat (Unspecified)
system.mem_ctrl.power_state.pwrStateResidencyTicks::UNDEFINED  10000002644                       # Cumulative time (in ticks) in various power states (Tick)
system.workload.inst.arm                            0                       # number of arm instructions executed (Count)
system.workload.inst.quiesce                        0                       # number of quiesce instructions executed (Count)

---------- End Simulation Statistics   ----------
