
---------- Begin Simulation Statistics ----------
simSeconds                                   0.010000                       # Number of seconds simulated (Second)
simTicks                                  10000002548                       # Number of ticks simulated (Tick)
finalTick                                 10000002548                       # Number of ticks from beginning of simulation (restored from checkpoints and never reset) (Tick)
simFreq                                  1000000000000                       # The number of ticks per simulated second ((Tick/Second))
hostSeconds                                     44.87                       # Real time elapsed on the host (Second)
hostTickRate                                222862118                       # The number of ticks simulated per host second (ticks/s) ((Tick/Second))
hostMemory                                    3275888                       # Number of bytes of host memory used (Byte)
system.clk_domain.clock                           250                       # Clock period in ticks (Tick)
system.clk_domain.voltage_domain.voltage            1                       # Voltage in Volts (Volt)
system.far_mem_ctrl.priorityMinLatency   0.000000000000                       # per QoS priority minimum request to response latency (Second)
system.far_mem_ctrl.priorityMaxLatency   0.000000000000                       # per QoS priority maximum request to response latency (Second)
system.far_mem_ctrl.numReadWriteTurnArounds            0                       # Number of turnarounds from READ to WRITE (Count)
system.far_mem_ctrl.numWriteReadTurnArounds            0                       # Number of turnarounds from WRITE to READ (Count)
system.far_mem_ctrl.numStayReadState             2568                       # Number of times bus staying in READ state (Count)
system.far_mem_ctrl.numStayWriteState               0                       # Number of times bus staying in WRITE state (Count)
system.far_mem_ctrl.readReqs                        0                       # Number of read requests accepted (Count)
system.far_mem_ctrl.writeReqs                       0                       # Number of write requests accepted (Count)
system.far_mem_ctrl.readBursts                      0                       # Number of controller read bursts, including those serviced by the write queue (Count)
system.far_mem_ctrl.writeBursts                     0                       # Number of controller write bursts, including those merged in the write queue (Count)
system.far_mem_ctrl.servicedByWrQ                   0                       # Number of controller read bursts serviced by the write queue (Count)
system.far_mem_ctrl.mergedWrBursts                  0                       # Number of controller write bursts merged with an existing one (Count)
system.far_mem_ctrl.avgRdQLen                    0.00                       # Average read queue length when enqueuing ((Count/Tick))
system.far_mem_ctrl.avgWrQLen                    0.00                       # Average write queue length when enqueuing ((Count/Tick))
system.far_mem_ctrl.numRdRetry                      0                       # Number of times read queue was full causing retry (Count)
system.far_mem_ctrl.numWrRetry                      0                       # Number of times write queue was full causing retry (Count)
system.far_mem_ctrl.readPktSize::0                  0                       # Read request sizes (log2) (Count)
system.far_mem_ctrl.readPktSize::1                  0                       # Read request sizes (log2) (Count)
system.far_mem_ctrl.readPktSize::2                  0                       # Read request sizes (log2) (Count)
system.far_mem_ctrl.readPktSize::3                  0                       # Read request sizes (log2) (Count)
system.far_mem_ctrl.readPktSize::4                  0                       # Read request sizes (log2) (Count)
system.far_mem_ctrl.readPktSize::5                  0                       # Read request sizes (log2) (Count)
system.far_mem_ctrl.readPktSize::6                  0                       # Read request sizes (log2) (Count)
system.far_mem_ctrl.writePktSize::0                 0                       # Write request sizes (log2) (Count)
system.far_mem_ctrl.writePktSize::1                 0                       # Write request sizes (log2) (Count)
system.far_mem_ctrl.writePktSize::2                 0                       # Write request sizes (log2) (Count)
system.far_mem_ctrl.writePktSize::3                 0                       # Write request sizes (log2) (Count)
system.far_mem_ctrl.writePktSize::4                 0                       # Write request sizes (log2) (Count)
system.far_mem_ctrl.writePktSize::5                 0                       # Write request sizes (log2) (Count)
system.far_mem_ctrl.writePktSize::6                 0                       # Write request sizes (log2) (Count)
system.far_mem_ctrl.rdQLenPdf::0                    0                       # What read queue length does an incoming req see (Count)
system.far_mem_ctrl.rdQLenPdf::1                    0                       # What read queue length does an incoming req see (Count)
system.far_mem_ctrl.rdQLenPdf::2                    0                       # What read queue length does an incoming req see (Count)
system.far_mem_ctrl.rdQLenPdf::3                    0                       # What read queue length does an incoming req see (Count)
system.far_mem_ctrl.rdQLenPdf::4                    0                       # What read queue length does an incoming req see (Count)
system.far_mem_ctrl.rdQLenPdf::5                    0                       # What read queue length does an incoming req see (Count)
system.far_mem_ctrl.rdQLenPdf::6                    0                       # What read queue length does an incoming req see (Count)
system.far_mem_ctrl.rdQLenPdf::7                    0                       # What read queue length does an incoming req see (Count)
system.far_mem_ctrl.rdQLenPdf::8                    0                       # What read queue length does an incoming req see (Count)
system.far_mem_ctrl.rdQLenPdf::9                    0                       # What read queue length does an incoming req see (Count)
system.far_mem_ctrl.rdQLenPdf::10                   0                       # What read queue length does an incoming req see (Count)
system.far_mem_ctrl.rdQLenPdf::11                   0                       # What read queue length does an incoming req see (Count)
system.far_mem_ctrl.rdQLenPdf::12                   0                       # What read queue length does an incoming req see (Count)
system.far_mem_ctrl.rdQLenPdf::13                   0                       # What read queue length does an incoming req see (Count)
system.far_mem_ctrl.rdQLenPdf::14                   0                       # What read queue length does an incoming req see (Count)
system.far_mem_ctrl.rdQLenPdf::15                   0                       # What read queue length does an incoming req see (Count)
system.far_mem_ctrl.rdQLenPdf::16                   0                       # What read queue length does an incoming req see (Count)
system.far_mem_ctrl.rdQLenPdf::17                   0                       # What read queue length does an incoming req see (Count)
system.far_mem_ctrl.rdQLenPdf::18                   0                       # What read queue length does an incoming req see (Count)
system.far_mem_ctrl.rdQLenPdf::19                   0                       # What read queue length does an incoming req see (Count)
system.far_mem_ctrl.rdQLenPdf::20                   0                       # What read queue length does an incoming req see (Count)
system.far_mem_ctrl.rdQLenPdf::21                   0                       # What read queue length does an incoming req see (Count)
system.far_mem_ctrl.rdQLenPdf::22                   0                       # What read queue length does an incoming req see (Count)
system.far_mem_ctrl.rdQLenPdf::23                   0                       # What read queue length does an incoming req see (Count)
system.far_mem_ctrl.rdQLenPdf::24                   0                       # What read queue length does an incoming req see (Count)
system.far_mem_ctrl.rdQLenPdf::25                   0                       # What read queue length does an incoming req see (Count)
system.far_mem_ctrl.rdQLenPdf::26                   0                       # What read queue length does an incoming req see (Count)
system.far_mem_ctrl.rdQLenPdf::27                   0                       # What read queue length does an incoming req see (Count)
system.far_mem_ctrl.rdQLenPdf::28                   0                       # What read queue length does an incoming req see (Count)
system.far_mem_ctrl.rdQLenPdf::29                   0                       # What read queue length does an incoming req see (Count)
system.far_mem_ctrl.rdQLenPdf::30                   0                       # What read queue length does an incoming req see (Count)
system.far_mem_ctrl.rdQLenPdf::31                   0                       # What read queue length does an incoming req see (Count)
system.far_mem_ctrl.rdQLenPdf::32                   0                       # What read queue length does an incoming req see (Count)
system.far_mem_ctrl.rdQLenPdf::33                   0                       # What read queue length does an incoming req see (Count)
system.far_mem_ctrl.rdQLenPdf::34                   0                       # What read queue length does an incoming req see (Count)
system.far_mem_ctrl.rdQLenPdf::35                   0                       # What read queue length does an incoming req see (Count)
system.far_mem_ctrl.rdQLenPdf::36                   0                       # What read queue length does an incoming req see (Count)
system.far_mem_ctrl.rdQLenPdf::37                   0                       # What read queue length does an incoming req see (Count)
system.far_mem_ctrl.rdQLenPdf::38                   0                       # What read queue length does an incoming req see (Count)
system.far_mem_ctrl.rdQLenPdf::39                   0                       # What read queue length does an incoming req see (Count)
system.far_mem_ctrl.rdQLenPdf::40                   0                       # What read queue length does an incoming req see (Count)
system.far_mem_ctrl.rdQLenPdf::41                   0                       # What read queue length does an incoming req see (Count)
system.far_mem_ctrl.rdQLenPdf::42                   0                       # What read queue length does an incoming req see (Count)
system.far_mem_ctrl.rdQLenPdf::43                   0                       # What read queue length does an incoming req see (Count)
system.far_mem_ctrl.rdQLenPdf::44                   0                       # What read queue length does an incoming req see (Count)
system.far_mem_ctrl.rdQLenPdf::45                   0                       # What read queue length does an incoming req see (Count)
system.far_mem_ctrl.rdQLenPdf::46                   0                       # What read queue length does an incoming req see (Count)
system.far_mem_ctrl.rdQLenPdf::47                   0                       # What read queue length does an incoming req see (Count)
system.far_mem_ctrl.rdQLenPdf::48                   0                       # What read queue length does an incoming req see (Count)
system.far_mem_ctrl.rdQLenPdf::49                   0                       # What read queue length does an incoming req see (Count)
system.far_mem_ctrl.rdQLenPdf::50                   0                       # What read queue length does an incoming req see (Count)
system.far_mem_ctrl.rdQLenPdf::51                   0                       # What read queue length does an incoming req see (Count)
system.far_mem_ctrl.rdQLenPdf::52                   0                       # What read queue length does an incoming req see (Count)
system.far_mem_ctrl.rdQLenPdf::53                   0                       # What read queue length does an incoming req see (Count)
system.far_mem_ctrl.rdQLenPdf::54                   0                       # What read queue length does an incoming req see (Count)
system.far_mem_ctrl.rdQLenPdf::55                   0                       # What read queue length does an incoming req see (Count)
system.far_mem_ctrl.rdQLenPdf::56                   0                       # What read queue length does an incoming req see (Count)
system.far_mem_ctrl.rdQLenPdf::57                   0                       # What read queue length does an incoming req see (Count)
system.far_mem_ctrl.rdQLenPdf::58                   0                       # What read queue length does an incoming req see (Count)
system.far_mem_ctrl.rdQLenPdf::59                   0                       # What read queue length does an incoming req see (Count)
system.far_mem_ctrl.rdQLenPdf::60                   0                       # What read queue length does an incoming req see (Count)
system.far_mem_ctrl.rdQLenPdf::61                   0                       # What read queue length does an incoming req see (Count)
system.far_mem_ctrl.rdQLenPdf::62                   0                       # What read queue length does an incoming req see (Count)
system.far_mem_ctrl.rdQLenPdf::63                   0                       # What read queue length does an incoming req see (Count)
system.far_mem_ctrl.wrQLenPdf::0                    0                       # What write queue length does an incoming req see (Count)
system.far_mem_ctrl.wrQLenPdf::1                    0                       # What write queue length does an incoming req see (Count)
system.far_mem_ctrl.wrQLenPdf::2                    0                       # What write queue length does an incoming req see (Count)
system.far_mem_ctrl.wrQLenPdf::3                    0                       # What write queue length does an incoming req see (Count)
system.far_mem_ctrl.wrQLenPdf::4                    0                       # What write queue length does an incoming req see (Count)
system.far_mem_ctrl.wrQLenPdf::5                    0                       # What write queue length does an incoming req see (Count)
system.far_mem_ctrl.wrQLenPdf::6                    0                       # What write queue length does an incoming req see (Count)
system.far_mem_ctrl.wrQLenPdf::7                    0                       # What write queue length does an incoming req see (Count)
system.far_mem_ctrl.wrQLenPdf::8                    0                       # What write queue length does an incoming req see (Count)
system.far_mem_ctrl.wrQLenPdf::9                    0                       # What write queue length does an incoming req see (Count)
system.far_mem_ctrl.wrQLenPdf::10                   0                       # What write queue length does an incoming req see (Count)
system.far_mem_ctrl.wrQLenPdf::11                   0                       # What write queue length does an incoming req see (Count)
system.far_mem_ctrl.wrQLenPdf::12                   0                       # What write queue length does an incoming req see (Count)
system.far_mem_ctrl.wrQLenPdf::13                   0                       # What write queue length does an incoming req see (Count)
system.far_mem_ctrl.wrQLenPdf::14                   0                       # What write queue length does an incoming req see (Count)
system.far_mem_ctrl.wrQLenPdf::15                   0                       # What write queue length does an incoming req see (Count)
system.far_mem_ctrl.wrQLenPdf::16                   0                       # What write queue length does an incoming req see (Count)
system.far_mem_ctrl.wrQLenPdf::17                   0                       # What write queue length does an incoming req see (Count)
system.far_mem_ctrl.wrQLenPdf::18                   0                       # What write queue length does an incoming req see (Count)
system.far_mem_ctrl.wrQLenPdf::19                   0                       # What write queue length does an incoming req see (Count)
system.far_mem_ctrl.wrQLenPdf::20                   0                       # What write queue length does an incoming req see (Count)
system.far_mem_ctrl.wrQLenPdf::21                   0                       # What write queue length does an incoming req see (Count)
system.far_mem_ctrl.wrQLenPdf::22                   0                       # What write queue length does an incoming req see (Count)
system.far_mem_ctrl.wrQLenPdf::23                   0                       # What write queue length does an incoming req see (Count)
system.far_mem_ctrl.wrQLenPdf::24                   0                       # What write queue length does an incoming req see (Count)
system.far_mem_ctrl.wrQLenPdf::25                   0                       # What write queue length does an incoming req see (Count)
system.far_mem_ctrl.wrQLenPdf::26                   0                       # What write queue length does an incoming req see (Count)
system.far_mem_ctrl.wrQLenPdf::27                   0                       # What write queue length does an incoming req see (Count)
system.far_mem_ctrl.wrQLenPdf::28                   0                       # What write queue length does an incoming req see (Count)
system.far_mem_ctrl.wrQLenPdf::29                   0                       # What write queue length does an incoming req see (Count)
system.far_mem_ctrl.wrQLenPdf::30                   0                       # What write queue length does an incoming req see (Count)
system.far_mem_ctrl.wrQLenPdf::31                   0                       # What write queue length does an incoming req see (Count)
system.far_mem_ctrl.wrQLenPdf::32                   0                       # What write queue length does an incoming req see (Count)
system.far_mem_ctrl.wrQLenPdf::33                   0                       # What write queue length does an incoming req see (Count)
system.far_mem_ctrl.wrQLenPdf::34                   0                       # What write queue length does an incoming req see (Count)
system.far_mem_ctrl.wrQLenPdf::35                   0                       # What write queue length does an incoming req see (Count)
system.far_mem_ctrl.wrQLenPdf::36                   0                       # What write queue length does an incoming req see (Count)
system.far_mem_ctrl.wrQLenPdf::37                   0                       # What write queue length does an incoming req see (Count)
system.far_mem_ctrl.wrQLenPdf::38                   0                       # What write queue length does an incoming req see (Count)
system.far_mem_ctrl.wrQLenPdf::39                   0                       # What write queue length does an incoming req see (Count)
system.far_mem_ctrl.wrQLenPdf::40                   0                       # What write queue length does an incoming req see (Count)
system.far_mem_ctrl.wrQLenPdf::41                   0                       # What write queue length does an incoming req see (Count)
system.far_mem_ctrl.wrQLenPdf::42                   0                       # What write queue length does an incoming req see (Count)
system.far_mem_ctrl.wrQLenPdf::43                   0                       # What write queue length does an incoming req see (Count)
system.far_mem_ctrl.wrQLenPdf::44                   0                       # What write queue length does an incoming req see (Count)
system.far_mem_ctrl.wrQLenPdf::45                   0                       # What write queue length does an incoming req see (Count)
system.far_mem_ctrl.wrQLenPdf::46                   0                       # What write queue length does an incoming req see (Count)
system.far_mem_ctrl.wrQLenPdf::47                   0                       # What write queue length does an incoming req see (Count)
system.far_mem_ctrl.wrQLenPdf::48                   0                       # What write queue length does an incoming req see (Count)
system.far_mem_ctrl.wrQLenPdf::49                   0                       # What write queue length does an incoming req see (Count)
system.far_mem_ctrl.wrQLenPdf::50                   0                       # What write queue length does an incoming req see (Count)
system.far_mem_ctrl.wrQLenPdf::51                   0                       # What write queue length does an incoming req see (Count)
system.far_mem_ctrl.wrQLenPdf::52                   0                       # What write queue length does an incoming req see (Count)
system.far_mem_ctrl.wrQLenPdf::53                   0                       # What write queue length does an incoming req see (Count)
system.far_mem_ctrl.wrQLenPdf::54                   0                       # What write queue length does an incoming req see (Count)
system.far_mem_ctrl.wrQLenPdf::55                   0                       # What write queue length does an incoming req see (Count)
system.far_mem_ctrl.wrQLenPdf::56                   0                       # What write queue length does an incoming req see (Count)
system.far_mem_ctrl.wrQLenPdf::57                   0                       # What write queue length does an incoming req see (Count)
system.far_mem_ctrl.wrQLenPdf::58                   0                       # What write queue length does an incoming req see (Count)
system.far_mem_ctrl.wrQLenPdf::59                   0                       # What write queue length does an incoming req see (Count)
system.far_mem_ctrl.wrQLenPdf::60                   0                       # What write queue length does an incoming req see (Count)
system.far_mem_ctrl.wrQLenPdf::61                   0                       # What write queue length does an incoming req see (Count)
system.far_mem_ctrl.wrQLenPdf::62                   0                       # What write queue length does an incoming req see (Count)
system.far_mem_ctrl.wrQLenPdf::63                   0                       # What write queue length does an incoming req see (Count)
system.far_mem_ctrl.wrQLenPdf::64                   0                       # What write queue length does an incoming req see (Count)
system.far_mem_ctrl.wrQLenPdf::65                   0                       # What write queue length does an incoming req see (Count)
system.far_mem_ctrl.wrQLenPdf::66                   0                       # What write queue length does an incoming req see (Count)
system.far_mem_ctrl.wrQLenPdf::67                   0                       # What write queue length does an incoming req see (Count)
system.far_mem_ctrl.wrQLenPdf::68                   0                       # What write queue length does an incoming req see (Count)
system.far_mem_ctrl.wrQLenPdf::69                   0                       # What write queue length does an incoming req see (Count)
system.far_mem_ctrl.wrQLenPdf::70                   0                       # What write queue length does an incoming req see (Count)
system.far_mem_ctrl.wrQLenPdf::71                   0                       # What write queue length does an incoming req see (Count)
system.far_mem_ctrl.wrQLenPdf::72                   0                       # What write queue length does an incoming req see (Count)
system.far_mem_ctrl.wrQLenPdf::73                   0                       # What write queue length does an incoming req see (Count)
system.far_mem_ctrl.wrQLenPdf::74                   0                       # What write queue length does an incoming req see (Count)
system.far_mem_ctrl.wrQLenPdf::75                   0                       # What write queue length does an incoming req see (Count)
system.far_mem_ctrl.wrQLenPdf::76                   0                       # What write queue length does an incoming req see (Count)
system.far_mem_ctrl.wrQLenPdf::77                   0                       # What write queue length does an incoming req see (Count)
system.far_mem_ctrl.wrQLenPdf::78                   0                       # What write queue length does an incoming req see (Count)
system.far_mem_ctrl.wrQLenPdf::79                   0                       # What write queue length does an incoming req see (Count)
system.far_mem_ctrl.wrQLenPdf::80                   0                       # What write queue length does an incoming req see (Count)
system.far_mem_ctrl.wrQLenPdf::81                   0                       # What write queue length does an incoming req see (Count)
system.far_mem_ctrl.wrQLenPdf::82                   0                       # What write queue length does an incoming req see (Count)
system.far_mem_ctrl.wrQLenPdf::83                   0                       # What write queue length does an incoming req see (Count)
system.far_mem_ctrl.wrQLenPdf::84                   0                       # What write queue length does an incoming req see (Count)
system.far_mem_ctrl.wrQLenPdf::85                   0                       # What write queue length does an incoming req see (Count)
system.far_mem_ctrl.wrQLenPdf::86                   0                       # What write queue length does an incoming req see (Count)
system.far_mem_ctrl.wrQLenPdf::87                   0                       # What write queue length does an incoming req see (Count)
system.far_mem_ctrl.wrQLenPdf::88                   0                       # What write queue length does an incoming req see (Count)
system.far_mem_ctrl.wrQLenPdf::89                   0                       # What write queue length does an incoming req see (Count)
system.far_mem_ctrl.wrQLenPdf::90                   0                       # What write queue length does an incoming req see (Count)
system.far_mem_ctrl.wrQLenPdf::91                   0                       # What write queue length does an incoming req see (Count)
system.far_mem_ctrl.wrQLenPdf::92                   0                       # What write queue length does an incoming req see (Count)
system.far_mem_ctrl.wrQLenPdf::93                   0                       # What write queue length does an incoming req see (Count)
system.far_mem_ctrl.wrQLenPdf::94                   0                       # What write queue length does an incoming req see (Count)
system.far_mem_ctrl.wrQLenPdf::95                   0                       # What write queue length does an incoming req see (Count)
system.far_mem_ctrl.wrQLenPdf::96                   0                       # What write queue length does an incoming req see (Count)
system.far_mem_ctrl.wrQLenPdf::97                   0                       # What write queue length does an incoming req see (Count)
system.far_mem_ctrl.wrQLenPdf::98                   0                       # What write queue length does an incoming req see (Count)
system.far_mem_ctrl.wrQLenPdf::99                   0                       # What write queue length does an incoming req see (Count)
system.far_mem_ctrl.wrQLenPdf::100                  0                       # What write queue length does an incoming req see (Count)
system.far_mem_ctrl.wrQLenPdf::101                  0                       # What write queue length does an incoming req see (Count)
system.far_mem_ctrl.wrQLenPdf::102                  0                       # What write queue length does an incoming req see (Count)
system.far_mem_ctrl.wrQLenPdf::103                  0                       # What write queue length does an incoming req see (Count)
system.far_mem_ctrl.wrQLenPdf::104                  0                       # What write queue length does an incoming req see (Count)
system.far_mem_ctrl.wrQLenPdf::105                  0                       # What write queue length does an incoming req see (Count)
system.far_mem_ctrl.wrQLenPdf::106                  0                       # What write queue length does an incoming req see (Count)
system.far_mem_ctrl.wrQLenPdf::107                  0                       # What write queue length does an incoming req see (Count)
system.far_mem_ctrl.wrQLenPdf::108                  0                       # What write queue length does an incoming req see (Count)
system.far_mem_ctrl.wrQLenPdf::109                  0                       # What write queue length does an incoming req see (Count)
system.far_mem_ctrl.wrQLenPdf::110                  0                       # What write queue length does an incoming req see (Count)
system.far_mem_ctrl.wrQLenPdf::111                  0                       # What write queue length does an incoming req see (Count)
system.far_mem_ctrl.wrQLenPdf::112                  0                       # What write queue length does an incoming req see (Count)
system.far_mem_ctrl.wrQLenPdf::113                  0                       # What write queue length does an incoming req see (Count)
system.far_mem_ctrl.wrQLenPdf::114                  0                       # What write queue length does an incoming req see (Count)
system.far_mem_ctrl.wrQLenPdf::115                  0                       # What write queue length does an incoming req see (Count)
system.far_mem_ctrl.wrQLenPdf::116                  0                       # What write queue length does an incoming req see (Count)
system.far_mem_ctrl.wrQLenPdf::117                  0                       # What write queue length does an incoming req see (Count)
system.far_mem_ctrl.wrQLenPdf::118                  0                       # What write queue length does an incoming req see (Count)
system.far_mem_ctrl.wrQLenPdf::119                  0                       # What write queue length does an incoming req see (Count)
system.far_mem_ctrl.wrQLenPdf::120                  0                       # What write queue length does an incoming req see (Count)
system.far_mem_ctrl.wrQLenPdf::121                  0                       # What write queue length does an incoming req see (Count)
system.far_mem_ctrl.wrQLenPdf::122                  0                       # What write queue length does an incoming req see (Count)
system.far_mem_ctrl.wrQLenPdf::123                  0                       # What write queue length does an incoming req see (Count)
system.far_mem_ctrl.wrQLenPdf::124                  0                       # What write queue length does an incoming req see (Count)
system.far_mem_ctrl.wrQLenPdf::125                  0                       # What write queue length does an incoming req see (Count)
system.far_mem_ctrl.wrQLenPdf::126                  0                       # What write queue length does an incoming req see (Count)
system.far_mem_ctrl.wrQLenPdf::127                  0                       # What write queue length does an incoming req see (Count)
system.far_mem_ctrl.bytesReadWrQ                    0                       # Total number of bytes read from write queue (Byte)
system.far_mem_ctrl.bytesReadSys                    0                       # Total read bytes from the system interface side (Byte)
system.far_mem_ctrl.bytesWrittenSys                 0                       # Total written bytes from the system interface side (Byte)
system.far_mem_ctrl.avgRdBWSys             0.00000000                       # Average system read bandwidth in Byte/s ((Byte/Second))
system.far_mem_ctrl.avgWrBWSys             0.00000000                       # Average system write bandwidth in Byte/s ((Byte/Second))
system.far_mem_ctrl.totGap                          0                       # Total gap between requests (Tick)
system.far_mem_ctrl.avgGap                        nan                       # Average gap between requests ((Tick/Count))
system.far_mem_ctrl.dram.readBursts                 0                       # Number of DRAM read bursts (Count)
system.far_mem_ctrl.dram.writeBursts                0                       # Number of DRAM write bursts (Count)
system.far_mem_ctrl.dram.perBankRdBursts::0            0                       # Per bank write bursts (Count)
system.far_mem_ctrl.dram.perBankRdBursts::1            0                       # Per bank write bursts (Count)
system.far_mem_ctrl.dram.perBankRdBursts::2            0                       # Per bank write bursts (Count)
system.far_mem_ctrl.dram.perBankRdBursts::3            0                       # Per bank write bursts (Count)
system.far_mem_ctrl.dram.perBankRdBursts::4            0                       # Per bank write bursts (Count)
system.far_mem_ctrl.dram.perBankRdBursts::5            0                       # Per bank write bursts (Count)
system.far_mem_ctrl.dram.perBankRdBursts::6            0                       # Per bank write bursts (Count)
system.far_mem_ctrl.dram.perBankRdBursts::7            0                       # Per bank write bursts (Count)
system.far_mem_ctrl.dram.perBankRdBursts::8            0                       # Per bank write bursts (Count)
system.far_mem_ctrl.dram.perBankRdBursts::9            0                       # Per bank write bursts (Count)
system.far_mem_ctrl.dram.perBankRdBursts::10            0                       # Per bank write bursts (Count)
system.far_mem_ctrl.dram.perBankRdBursts::11            0                       # Per bank write bursts (Count)
system.far_mem_ctrl.dram.perBankRdBursts::12            0                       # Per bank write bursts (Count)
system.far_mem_ctrl.dram.perBankRdBursts::13            0                       # Per bank write bursts (Count)
system.far_mem_ctrl.dram.perBankRdBursts::14            0                       # Per bank write bursts (Count)
system.far_mem_ctrl.dram.perBankRdBursts::15            0                       # Per bank write bursts (Count)
system.far_mem_ctrl.dram.perBankRdBursts::16            0                       # Per bank write bursts (Count)
system.far_mem_ctrl.dram.perBankRdBursts::17            0                       # Per bank write bursts (Count)
system.far_mem_ctrl.dram.perBankRdBursts::18            0                       # Per bank write bursts (Count)
system.far_mem_ctrl.dram.perBankRdBursts::19            0                       # Per bank write bursts (Count)
system.far_mem_ctrl.dram.perBankRdBursts::20            0                       # Per bank write bursts (Count)
system.far_mem_ctrl.dram.perBankRdBursts::21            0                       # Per bank write bursts (Count)
system.far_mem_ctrl.dram.perBankRdBursts::22            0                       # Per bank write bursts (Count)
system.far_mem_ctrl.dram.perBankRdBursts::23            0                       # Per bank write bursts (Count)
system.far_mem_ctrl.dram.perBankRdBursts::24            0                       # Per bank write bursts (Count)
system.far_mem_ctrl.dram.perBankRdBursts::25            0                       # Per bank write bursts (Count)
system.far_mem_ctrl.dram.perBankRdBursts::26            0                       # Per bank write bursts (Count)
system.far_mem_ctrl.dram.perBankRdBursts::27            0                       # Per bank write bursts (Count)
system.far_mem_ctrl.dram.perBankRdBursts::28            0                       # Per bank write bursts (Count)
system.far_mem_ctrl.dram.perBankRdBursts::29            0                       # Per bank write bursts (Count)
system.far_mem_ctrl.dram.perBankRdBursts::30            0                       # Per bank write bursts (Count)
system.far_mem_ctrl.dram.perBankRdBursts::31            0                       # Per bank write bursts (Count)
system.far_mem_ctrl.dram.perBankWrBursts::0            0                       # Per bank write bursts (Count)
system.far_mem_ctrl.dram.perBankWrBursts::1            0                       # Per bank write bursts (Count)
system.far_mem_ctrl.dram.perBankWrBursts::2            0                       # Per bank write bursts (Count)
system.far_mem_ctrl.dram.perBankWrBursts::3            0                       # Per bank write bursts (Count)
system.far_mem_ctrl.dram.perBankWrBursts::4            0                       # Per bank write bursts (Count)
system.far_mem_ctrl.dram.perBankWrBursts::5            0                       # Per bank write bursts (Count)
system.far_mem_ctrl.dram.perBankWrBursts::6            0                       # Per bank write bursts (Count)
system.far_mem_ctrl.dram.perBankWrBursts::7            0                       # Per bank write bursts (Count)
system.far_mem_ctrl.dram.perBankWrBursts::8            0                       # Per bank write bursts (Count)
system.far_mem_ctrl.dram.perBankWrBursts::9            0                       # Per bank write bursts (Count)
system.far_mem_ctrl.dram.perBankWrBursts::10            0                       # Per bank write bursts (Count)
system.far_mem_ctrl.dram.perBankWrBursts::11            0                       # Per bank write bursts (Count)
system.far_mem_ctrl.dram.perBankWrBursts::12            0                       # Per bank write bursts (Count)
system.far_mem_ctrl.dram.perBankWrBursts::13            0                       # Per bank write bursts (Count)
system.far_mem_ctrl.dram.perBankWrBursts::14            0                       # Per bank write bursts (Count)
system.far_mem_ctrl.dram.perBankWrBursts::15            0                       # Per bank write bursts (Count)
system.far_mem_ctrl.dram.perBankWrBursts::16            0                       # Per bank write bursts (Count)
system.far_mem_ctrl.dram.perBankWrBursts::17            0                       # Per bank write bursts (Count)
system.far_mem_ctrl.dram.perBankWrBursts::18            0                       # Per bank write bursts (Count)
system.far_mem_ctrl.dram.perBankWrBursts::19            0                       # Per bank write bursts (Count)
system.far_mem_ctrl.dram.perBankWrBursts::20            0                       # Per bank write bursts (Count)
system.far_mem_ctrl.dram.perBankWrBursts::21            0                       # Per bank write bursts (Count)
system.far_mem_ctrl.dram.perBankWrBursts::22            0                       # Per bank write bursts (Count)
system.far_mem_ctrl.dram.perBankWrBursts::23            0                       # Per bank write bursts (Count)
system.far_mem_ctrl.dram.perBankWrBursts::24            0                       # Per bank write bursts (Count)
system.far_mem_ctrl.dram.perBankWrBursts::25            0                       # Per bank write bursts (Count)
system.far_mem_ctrl.dram.perBankWrBursts::26            0                       # Per bank write bursts (Count)
system.far_mem_ctrl.dram.perBankWrBursts::27            0                       # Per bank write bursts (Count)
system.far_mem_ctrl.dram.perBankWrBursts::28            0                       # Per bank write bursts (Count)
system.far_mem_ctrl.dram.perBankWrBursts::29            0                       # Per bank write bursts (Count)
system.far_mem_ctrl.dram.perBankWrBursts::30            0                       # Per bank write bursts (Count)
system.far_mem_ctrl.dram.perBankWrBursts::31            0                       # Per bank write bursts (Count)
system.far_mem_ctrl.dram.totQLat                    0                       # Total ticks spent queuing (Tick)
system.far_mem_ctrl.dram.totBusLat                  0                       # Total ticks spent in databus transfers (Tick)
system.far_mem_ctrl.dram.totMemAccLat               0                       # Total ticks spent from burst creation until serviced by the DRAM (Tick)
system.far_mem_ctrl.dram.avgQLat                  nan                       # Average queueing delay per DRAM burst ((Tick/Count))
system.far_mem_ctrl.dram.avgBusLat                nan                       # Average bus latency per DRAM burst ((Tick/Count))
system.far_mem_ctrl.dram.avgMemAccLat             nan                       # Average memory access latency per DRAM burst ((Tick/Count))
system.far_mem_ctrl.dram.readRowHits                0                       # Number of row buffer hits during reads (Count)
system.far_mem_ctrl.dram.writeRowHits               0                       # Number of row buffer hits during writes (Count)
system.far_mem_ctrl.dram.readRowHitRate           nan                       # Row buffer hit rate for reads (Ratio)
system.far_mem_ctrl.dram.writeRowHitRate          nan                       # Row buffer hit rate for writes (Ratio)
system.far_mem_ctrl.dram.bytesRead                  0                       # Total bytes read (Byte)
system.far_mem_ctrl.dram.bytesWritten               0                       # Total bytes written (Byte)
system.far_mem_ctrl.dram.avgRdBW                    0                       # Average DRAM read bandwidth in MiBytes/s ((Byte/Second))
system.far_mem_ctrl.dram.avgWrBW                    0                       # Average DRAM write bandwidth in MiBytes/s ((Byte/Second))
system.far_mem_ctrl.dram.peakBW              19207.00                       # Theoretical peak bandwidth in MiByte/s ((Byte/Second))
system.far_mem_ctrl.dram.busUtil                 0.00                       # Data bus utilization in percentage (Ratio)
system.far_mem_ctrl.dram.busUtilRead             0.00                       # Data bus utilization in percentage for reads (Ratio)
system.far_mem_ctrl.dram.busUtilWrite            0.00                       # Data bus utilization in percentage for writes (Ratio)
system.far_mem_ctrl.dram.pageHitRate              nan                       # Row buffer hit rate, read and write combined (Ratio)
system.far_mem_ctrl.dram.power_state.pwrStateResidencyTicks::UNDEFINED  10000002548                       # Cumulative time (in ticks) in various power states (Tick)
system.far_mem_ctrl.dram.rank0.actEnergy            0                       # Energy for activate commands per rank (pJ) (Joule)
system.far_mem_ctrl.dram.rank0.preEnergy            0                       # Energy for precharge commands per rank (pJ) (Joule)
system.far_mem_ctrl.dram.rank0.readEnergy            0                       # Energy for read commands per rank (pJ) (Joule)
system.far_mem_ctrl.dram.rank0.writeEnergy            0                       # Energy for write commands per rank (pJ) (Joule)
system.far_mem_ctrl.dram.rank0.refreshEnergy 1778824873.324749                       # Energy for refresh commands per rank (pJ) (Joule)
system.far_mem_ctrl.dram.rank0.actBackEnergy 367118181.964789                       # Energy for active background per rank (pJ) (Joule)
system.far_mem_ctrl.dram.rank0.preBackEnergy 6245922167.385533                       # Energy for precharge background per rank (pJ) (Joule)
system.far_mem_ctrl.dram.rank0.actPowerDownEnergy            0                       # Energy for active power-down per rank (pJ) (Joule)
system.far_mem_ctrl.dram.rank0.prePowerDownEnergy            0                       # Energy for precharge power-down per rank (pJ) (Joule)
system.far_mem_ctrl.dram.rank0.selfRefreshEnergy            0                       # Energy for self refresh per rank (pJ) (Joule)
system.far_mem_ctrl.dram.rank0.totalEnergy 8391865222.675093                       # Total energy per rank (pJ) (Joule)
system.far_mem_ctrl.dram.rank0.averagePower   839.186308                       # Core power per rank (mW) (Watt)
system.far_mem_ctrl.dram.rank0.totalIdleTime            0                       # Total Idle time Per DRAM Rank (Tick)
system.far_mem_ctrl.dram.rank0.pwrStateTime::IDLE   9550602548                       # Time in different power states (Tick)
system.far_mem_ctrl.dram.rank0.pwrStateTime::REF    449400000                       # Time in different power states (Tick)
system.far_mem_ctrl.dram.rank0.pwrStateTime::SREF            0                       # Time in different power states (Tick)
system.far_mem_ctrl.dram.rank0.pwrStateTime::PRE_PDN            0                       # Time in different power states (Tick)
system.far_mem_ctrl.dram.rank0.pwrStateTime::ACT            0                       # Time in different power states (Tick)
system.far_mem_ctrl.dram.rank0.pwrStateTime::ACT_PDN            0                       # Time in different power states (Tick)
system.far_mem_ctrl.dram.rank1.actEnergy            0                       # Energy for activate commands per rank (pJ) (Joule)
system.far_mem_ctrl.dram.rank1.preEnergy            0                       # Energy for precharge commands per rank (pJ) (Joule)
system.far_mem_ctrl.dram.rank1.readEnergy            0                       # Energy for read commands per rank (pJ) (Joule)
system.far_mem_ctrl.dram.rank1.writeEnergy            0                       # Energy for write commands per rank (pJ) (Joule)
system.far_mem_ctrl.dram.rank1.refreshEnergy 1778824873.324749                       # Energy for refresh commands per rank (pJ) (Joule)
system.far_mem_ctrl.dram.rank1.actBackEnergy 367118181.964789                       # Energy for active background per rank (pJ) (Joule)
system.far_mem_ctrl.dram.rank1.preBackEnergy 6245922167.385533                       # Energy for precharge background per rank (pJ) (Joule)
system.far_mem_ctrl.dram.rank1.actPowerDownEnergy            0                       # Energy for active power-down per rank (pJ) (Joule)
system.far_mem_ctrl.dram.rank1.prePowerDownEnergy            0                       # Energy for precharge power-down per rank (pJ) (Joule)
system.far_mem_ctrl.dram.rank1.selfRefreshEnergy            0                       # Energy for self refresh per rank (pJ) (Joule)
system.far_mem_ctrl.dram.rank1.totalEnergy 8391865222.675093                       # Total energy per rank (pJ) (Joule)
system.far_mem_ctrl.dram.rank1.averagePower   839.186308                       # Core power per rank (mW) (Watt)
system.far_mem_ctrl.dram.rank1.totalIdleTime            0                       # Total Idle time Per DRAM Rank (Tick)
system.far_mem_ctrl.dram.rank1.pwrStateTime::IDLE   9550602548                       # Time in different power states (Tick)
system.far_mem_ctrl.dram.rank1.pwrStateTime::REF    449400000                       # Time in different power states (Tick)
system.far_mem_ctrl.dram.rank1.pwrStateTime::SREF            0                       # Time in different power states (Tick)
system.far_mem_ctrl.dram.rank1.pwrStateTime::PRE_PDN            0                       # Time in different power states (Tick)
system.far_mem_ctrl.dram.rank1.pwrStateTime::ACT            0                       # Time in different power states (Tick)
system.far_mem_ctrl.dram.rank1.pwrStateTime::ACT_PDN            0                       # Time in different power states (Tick)
system.far_mem_ctrl.power_state.pwrStateResidencyTicks::UNDEFINED  10000002548                       # Cumulative time (in ticks) in various power states (Tick)
system.generator.numSuppressed                      0                       # Number of suppressed packets to non-memory space (Count)
system.generator.numPackets                   2727601                       # Number of packets generated (Count)
system.generator.numRetries                   2714019                       # Number of retries (Count)
system.generator.retryTicks                9857990342                       # Time spent waiting due to back-pressure (Tick)
system.generator.bytesRead                  115750336                       # Number of bytes read (Byte)
system.generator.bytesWritten                58802496                       # Number of bytes written (Byte)
system.generator.totalReadLatency        1594028205532                       # Total latency of read requests (Tick)
system.generator.totalWriteLatency        21840129244                       # Total latency of write requests (Tick)
system.generator.totalReads                   1808599                       # Total num of reads (Count)
system.generator.totalWrites                   918789                       # Total num of writes (Count)
system.generator.avgReadLatency          881360.769044                       # Avg latency of read requests ((Tick/Count))
system.generator.avgWriteLatency         23770.560209                       # Avg latency of write requests ((Tick/Count))
system.generator.readBW                  11575030650.682190                       # Read bandwidth ((Byte/Second))
system.generator.writeBW                 5880248101.712784                       # Write bandwidth ((Byte/Second))
system.generator.power_state.pwrStateResidencyTicks::UNDEFINED  10000002548                       # Cumulative time (in ticks) in various power states (Tick)
system.loc_mem_ctrl.avgPriority_writebacks::samples   2727410.00                       # Average QoS priority value for accepted requests (Count)
system.loc_mem_ctrl.priorityMinLatency   0.000000044812                       # per QoS priority minimum request to response latency (Second)
system.loc_mem_ctrl.priorityMaxLatency   0.000019746602                       # per QoS priority maximum request to response latency (Second)
system.loc_mem_ctrl.numReadWriteTurnArounds            0                       # Number of turnarounds from READ to WRITE (Count)
system.loc_mem_ctrl.numWriteReadTurnArounds            0                       # Number of turnarounds from WRITE to READ (Count)
system.loc_mem_ctrl.numStayReadState          2740667                       # Number of times bus staying in READ state (Count)
system.loc_mem_ctrl.numStayWriteState               0                       # Number of times bus staying in WRITE state (Count)
system.loc_mem_ctrl.readReqs                  1808675                       # Number of read requests accepted (Count)
system.loc_mem_ctrl.writeReqs                  918740                       # Number of write requests accepted (Count)
system.loc_mem_ctrl.readBursts                1808675                       # Number of controller read bursts, including those serviced by the write queue (Count)
system.loc_mem_ctrl.writeBursts                918740                       # Number of controller write bursts, including those merged in the write queue (Count)
system.loc_mem_ctrl.servicedByWrQ                   5                       # Number of controller read bursts serviced by the write queue (Count)
system.loc_mem_ctrl.mergedWrBursts                  0                       # Number of controller write bursts merged with an existing one (Count)
system.loc_mem_ctrl.avgRdQLen                   58.24                       # Average read queue length when enqueuing ((Count/Tick))
system.loc_mem_ctrl.avgWrQLen                  123.25                       # Average write queue length when enqueuing ((Count/Tick))
system.loc_mem_ctrl.numRdRetry                2704482                       # Number of times read queue was full causing retry (Count)
system.loc_mem_ctrl.numWrRetry                2408872                       # Number of times write queue was full causing retry (Count)
system.loc_mem_ctrl.readPktSize::0                  0                       # Read request sizes (log2) (Count)
system.loc_mem_ctrl.readPktSize::1                  0                       # Read request sizes (log2) (Count)
system.loc_mem_ctrl.readPktSize::2                  0                       # Read request sizes (log2) (Count)
system.loc_mem_ctrl.readPktSize::3                  0                       # Read request sizes (log2) (Count)
system.loc_mem_ctrl.readPktSize::4                  0                       # Read request sizes (log2) (Count)
system.loc_mem_ctrl.readPktSize::5                  0                       # Read request sizes (log2) (Count)
system.loc_mem_ctrl.readPktSize::6            1808675                       # Read request sizes (log2) (Count)
system.loc_mem_ctrl.writePktSize::0                 0                       # Write request sizes (log2) (Count)
system.loc_mem_ctrl.writePktSize::1                 0                       # Write request sizes (log2) (Count)
system.loc_mem_ctrl.writePktSize::2                 0                       # Write request sizes (log2) (Count)
system.loc_mem_ctrl.writePktSize::3                 0                       # Write request sizes (log2) (Count)
system.loc_mem_ctrl.writePktSize::4                 0                       # Write request sizes (log2) (Count)
system.loc_mem_ctrl.writePktSize::5                 0                       # Write request sizes (log2) (Count)
system.loc_mem_ctrl.writePktSize::6            918740                       # Write request sizes (log2) (Count)
system.loc_mem_ctrl.rdQLenPdf::0                    1                       # What read queue length does an incoming req see (Count)
system.loc_mem_ctrl.rdQLenPdf::1                    6                       # What read queue length does an incoming req see (Count)
system.loc_mem_ctrl.rdQLenPdf::2                   49                       # What read queue length does an incoming req see (Count)
system.loc_mem_ctrl.rdQLenPdf::3                  186                       # What read queue length does an incoming req see (Count)
system.loc_mem_ctrl.rdQLenPdf::4                  540                       # What read queue length does an incoming req see (Count)
system.loc_mem_ctrl.rdQLenPdf::5                 1055                       # What read queue length does an incoming req see (Count)
system.loc_mem_ctrl.rdQLenPdf::6                 1962                       # What read queue length does an incoming req see (Count)
system.loc_mem_ctrl.rdQLenPdf::7                 3172                       # What read queue length does an incoming req see (Count)
system.loc_mem_ctrl.rdQLenPdf::8                 4567                       # What read queue length does an incoming req see (Count)
system.loc_mem_ctrl.rdQLenPdf::9                 5790                       # What read queue length does an incoming req see (Count)
system.loc_mem_ctrl.rdQLenPdf::10                6889                       # What read queue length does an incoming req see (Count)
system.loc_mem_ctrl.rdQLenPdf::11                7543                       # What read queue length does an incoming req see (Count)
system.loc_mem_ctrl.rdQLenPdf::12                7784                       # What read queue length does an incoming req see (Count)
system.loc_mem_ctrl.rdQLenPdf::13                7496                       # What read queue length does an incoming req see (Count)
system.loc_mem_ctrl.rdQLenPdf::14                7169                       # What read queue length does an incoming req see (Count)
system.loc_mem_ctrl.rdQLenPdf::15                6942                       # What read queue length does an incoming req see (Count)
system.loc_mem_ctrl.rdQLenPdf::16                6817                       # What read queue length does an incoming req see (Count)
system.loc_mem_ctrl.rdQLenPdf::17                6437                       # What read queue length does an incoming req see (Count)
system.loc_mem_ctrl.rdQLenPdf::18                6454                       # What read queue length does an incoming req see (Count)
system.loc_mem_ctrl.rdQLenPdf::19                6202                       # What read queue length does an incoming req see (Count)
system.loc_mem_ctrl.rdQLenPdf::20                6325                       # What read queue length does an incoming req see (Count)
system.loc_mem_ctrl.rdQLenPdf::21                6359                       # What read queue length does an incoming req see (Count)
system.loc_mem_ctrl.rdQLenPdf::22                6212                       # What read queue length does an incoming req see (Count)
system.loc_mem_ctrl.rdQLenPdf::23                6234                       # What read queue length does an incoming req see (Count)
system.loc_mem_ctrl.rdQLenPdf::24                6233                       # What read queue length does an incoming req see (Count)
system.loc_mem_ctrl.rdQLenPdf::25                6096                       # What read queue length does an incoming req see (Count)
system.loc_mem_ctrl.rdQLenPdf::26                6097                       # What read queue length does an incoming req see (Count)
system.loc_mem_ctrl.rdQLenPdf::27                6164                       # What read queue length does an incoming req see (Count)
system.loc_mem_ctrl.rdQLenPdf::28                6142                       # What read queue length does an incoming req see (Count)
system.loc_mem_ctrl.rdQLenPdf::29                6047                       # What read queue length does an incoming req see (Count)
system.loc_mem_ctrl.rdQLenPdf::30                6076                       # What read queue length does an incoming req see (Count)
system.loc_mem_ctrl.rdQLenPdf::31                6306                       # What read queue length does an incoming req see (Count)
system.loc_mem_ctrl.rdQLenPdf::32                6065                       # What read queue length does an incoming req see (Count)
system.loc_mem_ctrl.rdQLenPdf::33                5990                       # What read queue length does an incoming req see (Count)
system.loc_mem_ctrl.rdQLenPdf::34                6310                       # What read queue length does an incoming req see (Count)
system.loc_mem_ctrl.rdQLenPdf::35                6016                       # What read queue length does an incoming req see (Count)
system.loc_mem_ctrl.rdQLenPdf::36                6139                       # What read queue length does an incoming req see (Count)
system.loc_mem_ctrl.rdQLenPdf::37                6114                       # What read queue length does an incoming req see (Count)
system.loc_mem_ctrl.rdQLenPdf::38                6017                       # What read queue length does an incoming req see (Count)
system.loc_mem_ctrl.rdQLenPdf::39                6077                       # What read queue length does an incoming req see (Count)
system.loc_mem_ctrl.rdQLenPdf::40                6101                       # What read queue length does an incoming req see (Count)
system.loc_mem_ctrl.rdQLenPdf::41                6117                       # What read queue length does an incoming req see (Count)
system.loc_mem_ctrl.rdQLenPdf::42                6174                       # What read queue length does an incoming req see (Count)
system.loc_mem_ctrl.rdQLenPdf::43                5931                       # What read queue length does an incoming req see (Count)
system.loc_mem_ctrl.rdQLenPdf::44                5846                       # What read queue length does an incoming req see (Count)
system.loc_mem_ctrl.rdQLenPdf::45                6106                       # What read queue length does an incoming req see (Count)
system.loc_mem_ctrl.rdQLenPdf::46                6100                       # What read queue length does an incoming req see (Count)
system.loc_mem_ctrl.rdQLenPdf::47                6063                       # What read queue length does an incoming req see (Count)
system.loc_mem_ctrl.rdQLenPdf::48                6004                       # What read queue length does an incoming req see (Count)
system.loc_mem_ctrl.rdQLenPdf::49                6009                       # What read queue length does an incoming req see (Count)
system.loc_mem_ctrl.rdQLenPdf::50                6131                       # What read queue length does an incoming req see (Count)
system.loc_mem_ctrl.rdQLenPdf::51                5798                       # What read queue length does an incoming req see (Count)
system.loc_mem_ctrl.rdQLenPdf::52                5982                       # What read queue length does an incoming req see (Count)
system.loc_mem_ctrl.rdQLenPdf::53                6027                       # What read queue length does an incoming req see (Count)
system.loc_mem_ctrl.rdQLenPdf::54                6041                       # What read queue length does an incoming req see (Count)
system.loc_mem_ctrl.rdQLenPdf::55                5965                       # What read queue length does an incoming req see (Count)
system.loc_mem_ctrl.rdQLenPdf::56                6159                       # What read queue length does an incoming req see (Count)
system.loc_mem_ctrl.rdQLenPdf::57                5985                       # What read queue length does an incoming req see (Count)
system.loc_mem_ctrl.rdQLenPdf::58                6078                       # What read queue length does an incoming req see (Count)
system.loc_mem_ctrl.rdQLenPdf::59                6039                       # What read queue length does an incoming req see (Count)
system.loc_mem_ctrl.rdQLenPdf::60                5963                       # What read queue length does an incoming req see (Count)
system.loc_mem_ctrl.rdQLenPdf::61                6031                       # What read queue length does an incoming req see (Count)
system.loc_mem_ctrl.rdQLenPdf::62                6009                       # What read queue length does an incoming req see (Count)
system.loc_mem_ctrl.rdQLenPdf::63             1459931                       # What read queue length does an incoming req see (Count)
system.loc_mem_ctrl.wrQLenPdf::0                    1                       # What write queue length does an incoming req see (Count)
system.loc_mem_ctrl.wrQLenPdf::1                    1                       # What write queue length does an incoming req see (Count)
system.loc_mem_ctrl.wrQLenPdf::2                    1                       # What write queue length does an incoming req see (Count)
system.loc_mem_ctrl.wrQLenPdf::3                    1                       # What write queue length does an incoming req see (Count)
system.loc_mem_ctrl.wrQLenPdf::4                    1                       # What write queue length does an incoming req see (Count)
system.loc_mem_ctrl.wrQLenPdf::5                    1                       # What write queue length does an incoming req see (Count)
system.loc_mem_ctrl.wrQLenPdf::6                    1                       # What write queue length does an incoming req see (Count)
system.loc_mem_ctrl.wrQLenPdf::7                    1                       # What write queue length does an incoming req see (Count)
system.loc_mem_ctrl.wrQLenPdf::8                    1                       # What write queue length does an incoming req see (Count)
system.loc_mem_ctrl.wrQLenPdf::9                    1                       # What write queue length does an incoming req see (Count)
system.loc_mem_ctrl.wrQLenPdf::10                   1                       # What write queue length does an incoming req see (Count)
system.loc_mem_ctrl.wrQLenPdf::11                   1                       # What write queue length does an incoming req see (Count)
system.loc_mem_ctrl.wrQLenPdf::12                   1                       # What write queue length does an incoming req see (Count)
system.loc_mem_ctrl.wrQLenPdf::13                   1                       # What write queue length does an incoming req see (Count)
system.loc_mem_ctrl.wrQLenPdf::14                   1                       # What write queue length does an incoming req see (Count)
system.loc_mem_ctrl.wrQLenPdf::15                   1                       # What write queue length does an incoming req see (Count)
system.loc_mem_ctrl.wrQLenPdf::16                   1                       # What write queue length does an incoming req see (Count)
system.loc_mem_ctrl.wrQLenPdf::17                   1                       # What write queue length does an incoming req see (Count)
system.loc_mem_ctrl.wrQLenPdf::18                   1                       # What write queue length does an incoming req see (Count)
system.loc_mem_ctrl.wrQLenPdf::19                   1                       # What write queue length does an incoming req see (Count)
system.loc_mem_ctrl.wrQLenPdf::20                   1                       # What write queue length does an incoming req see (Count)
system.loc_mem_ctrl.wrQLenPdf::21                   1                       # What write queue length does an incoming req see (Count)
system.loc_mem_ctrl.wrQLenPdf::22                   1                       # What write queue length does an incoming req see (Count)
system.loc_mem_ctrl.wrQLenPdf::23                   1                       # What write queue length does an incoming req see (Count)
system.loc_mem_ctrl.wrQLenPdf::24                   1                       # What write queue length does an incoming req see (Count)
system.loc_mem_ctrl.wrQLenPdf::25                   1                       # What write queue length does an incoming req see (Count)
system.loc_mem_ctrl.wrQLenPdf::26                   1                       # What write queue length does an incoming req see (Count)
system.loc_mem_ctrl.wrQLenPdf::27                   1                       # What write queue length does an incoming req see (Count)
system.loc_mem_ctrl.wrQLenPdf::28                   1                       # What write queue length does an incoming req see (Count)
system.loc_mem_ctrl.wrQLenPdf::29                   1                       # What write queue length does an incoming req see (Count)
system.loc_mem_ctrl.wrQLenPdf::30                   1                       # What write queue length does an incoming req see (Count)
system.loc_mem_ctrl.wrQLenPdf::31                   1                       # What write queue length does an incoming req see (Count)
system.loc_mem_ctrl.wrQLenPdf::32                   1                       # What write queue length does an incoming req see (Count)
system.loc_mem_ctrl.wrQLenPdf::33                   1                       # What write queue length does an incoming req see (Count)
system.loc_mem_ctrl.wrQLenPdf::34                   1                       # What write queue length does an incoming req see (Count)
system.loc_mem_ctrl.wrQLenPdf::35                   1                       # What write queue length does an incoming req see (Count)
system.loc_mem_ctrl.wrQLenPdf::36                   1                       # What write queue length does an incoming req see (Count)
system.loc_mem_ctrl.wrQLenPdf::37                   1                       # What write queue length does an incoming req see (Count)
system.loc_mem_ctrl.wrQLenPdf::38                   1                       # What write queue length does an incoming req see (Count)
system.loc_mem_ctrl.wrQLenPdf::39                   1                       # What write queue length does an incoming req see (Count)
system.loc_mem_ctrl.wrQLenPdf::40                   1                       # What write queue length does an incoming req see (Count)
system.loc_mem_ctrl.wrQLenPdf::41                   1                       # What write queue length does an incoming req see (Count)
system.loc_mem_ctrl.wrQLenPdf::42                   1                       # What write queue length does an incoming req see (Count)
system.loc_mem_ctrl.wrQLenPdf::43                   1                       # What write queue length does an incoming req see (Count)
system.loc_mem_ctrl.wrQLenPdf::44                   1                       # What write queue length does an incoming req see (Count)
system.loc_mem_ctrl.wrQLenPdf::45                   1                       # What write queue length does an incoming req see (Count)
system.loc_mem_ctrl.wrQLenPdf::46                   1                       # What write queue length does an incoming req see (Count)
system.loc_mem_ctrl.wrQLenPdf::47                2027                       # What write queue length does an incoming req see (Count)
system.loc_mem_ctrl.wrQLenPdf::48                2027                       # What write queue length does an incoming req see (Count)
system.loc_mem_ctrl.wrQLenPdf::49                2027                       # What write queue length does an incoming req see (Count)
system.loc_mem_ctrl.wrQLenPdf::50                2027                       # What write queue length does an incoming req see (Count)
system.loc_mem_ctrl.wrQLenPdf::51                2027                       # What write queue length does an incoming req see (Count)
system.loc_mem_ctrl.wrQLenPdf::52                2027                       # What write queue length does an incoming req see (Count)
system.loc_mem_ctrl.wrQLenPdf::53                2027                       # What write queue length does an incoming req see (Count)
system.loc_mem_ctrl.wrQLenPdf::54                2027                       # What write queue length does an incoming req see (Count)
system.loc_mem_ctrl.wrQLenPdf::55                2027                       # What write queue length does an incoming req see (Count)
system.loc_mem_ctrl.wrQLenPdf::56                2027                       # What write queue length does an incoming req see (Count)
system.loc_mem_ctrl.wrQLenPdf::57                2027                       # What write queue length does an incoming req see (Count)
system.loc_mem_ctrl.wrQLenPdf::58                2027                       # What write queue length does an incoming req see (Count)
system.loc_mem_ctrl.wrQLenPdf::59                2027                       # What write queue length does an incoming req see (Count)
system.loc_mem_ctrl.wrQLenPdf::60                2027                       # What write queue length does an incoming req see (Count)
system.loc_mem_ctrl.wrQLenPdf::61                2027                       # What write queue length does an incoming req see (Count)
system.loc_mem_ctrl.wrQLenPdf::62                2027                       # What write queue length does an incoming req see (Count)
system.loc_mem_ctrl.wrQLenPdf::63                2027                       # What write queue length does an incoming req see (Count)
system.loc_mem_ctrl.wrQLenPdf::64                2027                       # What write queue length does an incoming req see (Count)
system.loc_mem_ctrl.wrQLenPdf::65                2027                       # What write queue length does an incoming req see (Count)
system.loc_mem_ctrl.wrQLenPdf::66                2027                       # What write queue length does an incoming req see (Count)
system.loc_mem_ctrl.wrQLenPdf::67                2027                       # What write queue length does an incoming req see (Count)
system.loc_mem_ctrl.wrQLenPdf::68                2027                       # What write queue length does an incoming req see (Count)
system.loc_mem_ctrl.wrQLenPdf::69                2027                       # What write queue length does an incoming req see (Count)
system.loc_mem_ctrl.wrQLenPdf::70                2027                       # What write queue length does an incoming req see (Count)
system.loc_mem_ctrl.wrQLenPdf::71                2027                       # What write queue length does an incoming req see (Count)
system.loc_mem_ctrl.wrQLenPdf::72                2027                       # What write queue length does an incoming req see (Count)
system.loc_mem_ctrl.wrQLenPdf::73                2027                       # What write queue length does an incoming req see (Count)
system.loc_mem_ctrl.wrQLenPdf::74                2027                       # What write queue length does an incoming req see (Count)
system.loc_mem_ctrl.wrQLenPdf::75                2027                       # What write queue length does an incoming req see (Count)
system.loc_mem_ctrl.wrQLenPdf::76                2027                       # What write queue length does an incoming req see (Count)
system.loc_mem_ctrl.wrQLenPdf::77                2027                       # What write queue length does an incoming req see (Count)
system.loc_mem_ctrl.wrQLenPdf::78                2027                       # What write queue length does an incoming req see (Count)
system.loc_mem_ctrl.wrQLenPdf::79                2027                       # What write queue length does an incoming req see (Count)
system.loc_mem_ctrl.wrQLenPdf::80                2027                       # What write queue length does an incoming req see (Count)
system.loc_mem_ctrl.wrQLenPdf::81                2027                       # What write queue length does an incoming req see (Count)
system.loc_mem_ctrl.wrQLenPdf::82                2027                       # What write queue length does an incoming req see (Count)
system.loc_mem_ctrl.wrQLenPdf::83                2027                       # What write queue length does an incoming req see (Count)
system.loc_mem_ctrl.wrQLenPdf::84                2027                       # What write queue length does an incoming req see (Count)
system.loc_mem_ctrl.wrQLenPdf::85                2027                       # What write queue length does an incoming req see (Count)
system.loc_mem_ctrl.wrQLenPdf::86                2027                       # What write queue length does an incoming req see (Count)
system.loc_mem_ctrl.wrQLenPdf::87                2027                       # What write queue length does an incoming req see (Count)
system.loc_mem_ctrl.wrQLenPdf::88                2027                       # What write queue length does an incoming req see (Count)
system.loc_mem_ctrl.wrQLenPdf::89                2027                       # What write queue length does an incoming req see (Count)
system.loc_mem_ctrl.wrQLenPdf::90                2027                       # What write queue length does an incoming req see (Count)
system.loc_mem_ctrl.wrQLenPdf::91                2027                       # What write queue length does an incoming req see (Count)
system.loc_mem_ctrl.wrQLenPdf::92                2027                       # What write queue length does an incoming req see (Count)
system.loc_mem_ctrl.wrQLenPdf::93                2027                       # What write queue length does an incoming req see (Count)
system.loc_mem_ctrl.wrQLenPdf::94                2027                       # What write queue length does an incoming req see (Count)
system.loc_mem_ctrl.wrQLenPdf::95                2027                       # What write queue length does an incoming req see (Count)
system.loc_mem_ctrl.wrQLenPdf::96                2027                       # What write queue length does an incoming req see (Count)
system.loc_mem_ctrl.wrQLenPdf::97                2027                       # What write queue length does an incoming req see (Count)
system.loc_mem_ctrl.wrQLenPdf::98                2027                       # What write queue length does an incoming req see (Count)
system.loc_mem_ctrl.wrQLenPdf::99                2027                       # What write queue length does an incoming req see (Count)
system.loc_mem_ctrl.wrQLenPdf::100               2027                       # What write queue length does an incoming req see (Count)
system.loc_mem_ctrl.wrQLenPdf::101               2027                       # What write queue length does an incoming req see (Count)
system.loc_mem_ctrl.wrQLenPdf::102               2027                       # What write queue length does an incoming req see (Count)
system.loc_mem_ctrl.wrQLenPdf::103               2027                       # What write queue length does an incoming req see (Count)
system.loc_mem_ctrl.wrQLenPdf::104               2027                       # What write queue length does an incoming req see (Count)
system.loc_mem_ctrl.wrQLenPdf::105               2027                       # What write queue length does an incoming req see (Count)
system.loc_mem_ctrl.wrQLenPdf::106               2027                       # What write queue length does an incoming req see (Count)
system.loc_mem_ctrl.wrQLenPdf::107               2027                       # What write queue length does an incoming req see (Count)
system.loc_mem_ctrl.wrQLenPdf::108               2027                       # What write queue length does an incoming req see (Count)
system.loc_mem_ctrl.wrQLenPdf::109               2027                       # What write queue length does an incoming req see (Count)
system.loc_mem_ctrl.wrQLenPdf::110               2027                       # What write queue length does an incoming req see (Count)
system.loc_mem_ctrl.wrQLenPdf::111               2027                       # What write queue length does an incoming req see (Count)
system.loc_mem_ctrl.wrQLenPdf::112               2028                       # What write queue length does an incoming req see (Count)
system.loc_mem_ctrl.wrQLenPdf::113               2028                       # What write queue length does an incoming req see (Count)
system.loc_mem_ctrl.wrQLenPdf::114               2028                       # What write queue length does an incoming req see (Count)
system.loc_mem_ctrl.wrQLenPdf::115               2028                       # What write queue length does an incoming req see (Count)
system.loc_mem_ctrl.wrQLenPdf::116               2030                       # What write queue length does an incoming req see (Count)
system.loc_mem_ctrl.wrQLenPdf::117               2029                       # What write queue length does an incoming req see (Count)
system.loc_mem_ctrl.wrQLenPdf::118               2038                       # What write queue length does an incoming req see (Count)
system.loc_mem_ctrl.wrQLenPdf::119               2039                       # What write queue length does an incoming req see (Count)
system.loc_mem_ctrl.wrQLenPdf::120               2046                       # What write queue length does an incoming req see (Count)
system.loc_mem_ctrl.wrQLenPdf::121               2066                       # What write queue length does an incoming req see (Count)
system.loc_mem_ctrl.wrQLenPdf::122               2086                       # What write queue length does an incoming req see (Count)
system.loc_mem_ctrl.wrQLenPdf::123               2156                       # What write queue length does an incoming req see (Count)
system.loc_mem_ctrl.wrQLenPdf::124               2575                       # What write queue length does an incoming req see (Count)
system.loc_mem_ctrl.wrQLenPdf::125               3239                       # What write queue length does an incoming req see (Count)
system.loc_mem_ctrl.wrQLenPdf::126               3286                       # What write queue length does an incoming req see (Count)
system.loc_mem_ctrl.wrQLenPdf::127             753236                       # What write queue length does an incoming req see (Count)
system.loc_mem_ctrl.rdPerTurnAround::samples         2026                       # Reads before turning the bus around for writes (Count)
system.loc_mem_ctrl.rdPerTurnAround::0           2026    100.00%    100.00% # Reads before turning the bus around for writes (Count)
system.loc_mem_ctrl.rdPerTurnAround::total         2026                       # Reads before turning the bus around for writes (Count)
system.loc_mem_ctrl.wrPerTurnAround::samples         2026                       # Writes before turning the bus around for reads (Count)
system.loc_mem_ctrl.wrPerTurnAround::0           2026    100.00%    100.00% # Writes before turning the bus around for reads (Count)
system.loc_mem_ctrl.wrPerTurnAround::total         2026                       # Writes before turning the bus around for reads (Count)
system.loc_mem_ctrl.bytesReadWrQ                  320                       # Total number of bytes read from write queue (Byte)
system.loc_mem_ctrl.bytesReadSys            115755200                       # Total read bytes from the system interface side (Byte)
system.loc_mem_ctrl.bytesWrittenSys          58799360                       # Total written bytes from the system interface side (Byte)
system.loc_mem_ctrl.avgRdBWSys           11575517050.55825424                       # Average system read bandwidth in Byte/s ((Byte/Second))
system.loc_mem_ctrl.avgWrBWSys           5879934501.79268837                       # Average system write bandwidth in Byte/s ((Byte/Second))
system.loc_mem_ctrl.totGap                10000001540                       # Total gap between requests (Tick)
system.loc_mem_ctrl.avgGap                    3666.48                       # Average gap between requests ((Tick/Count))
[...]
system.loc_mem_ctrl.dram.perBankWrBursts::24        28895                       # Per bank write bursts (Count)
system.loc_mem_ctrl.dram.perBankWrBursts::25        28789                       # Per bank write bursts (Count)
system.loc_mem_ctrl.dram.perBankWrBursts::26        28703                       # Per bank write bursts (Count)
system.loc_mem_ctrl.dram.perBankWrBursts::27        28842                       # Per bank write bursts (Count)
system.loc_mem_ctrl.dram.perBankWrBursts::28        28714                       # Per bank write bursts (Count)
system.loc_mem_ctrl.dram.perBankWrBursts::29        28696                       # Per bank write bursts (Count)
system.loc_mem_ctrl.dram.perBankWrBursts::30        28461                       # Per bank write bursts (Count)
system.loc_mem_ctrl.dram.perBankWrBursts::31        28706                       # Per bank write bursts (Count)
system.loc_mem_ctrl.dram.totQLat         549644941180                       # Total ticks spent queuing (Tick)
system.loc_mem_ctrl.dram.totBusLat         6026318508                       # Total ticks spent in databus transfers (Tick)
system.loc_mem_ctrl.dram.totMemAccLat    581281304728                       # Total ticks spent from burst creation until serviced by the DRAM (Tick)
system.loc_mem_ctrl.dram.avgQLat            303903.11                       # Average queueing delay per DRAM burst ((Tick/Count))
system.loc_mem_ctrl.dram.avgBusLat            3332.00                       # Average bus latency per DRAM burst ((Tick/Count))
system.loc_mem_ctrl.dram.avgMemAccLat       321395.11                       # Average memory access latency per DRAM burst ((Tick/Count))
system.loc_mem_ctrl.dram.readRowHits              338                       # Number of row buffer hits during reads (Count)
system.loc_mem_ctrl.dram.writeRowHits             299                       # Number of row buffer hits during writes (Count)
system.loc_mem_ctrl.dram.readRowHitRate          0.02                       # Row buffer hit rate for reads (Ratio)
system.loc_mem_ctrl.dram.writeRowHitRate         0.03                       # Row buffer hit rate for writes (Ratio)
system.loc_mem_ctrl.dram.bytesPerActivate::samples      2726582                       # Bytes accessed per row activation (Byte)
system.loc_mem_ctrl.dram.bytesPerActivate::mean    64.014952                       # Bytes accessed per row activation (Byte)
system.loc_mem_ctrl.dram.bytesPerActivate::gmean    64.010365                       # Bytes accessed per row activation (Byte)
system.loc_mem_ctrl.dram.bytesPerActivate::stdev     0.978115                       # Bytes accessed per row activation (Byte)
system.loc_mem_ctrl.dram.bytesPerActivate::64-79      2725945     99.98%     99.98% # Bytes accessed per row activation (Byte)
system.loc_mem_ctrl.dram.bytesPerActivate::128-143          637      0.02%    100.00% # Bytes accessed per row activation (Byte)
system.loc_mem_ctrl.dram.bytesPerActivate::total      2726582                       # Bytes accessed per row activation (Byte)
system.loc_mem_ctrl.dram.bytesRead          115751616                       # Total bytes read (Byte)
system.loc_mem_ctrl.dram.bytesWritten        58791168                       # Total bytes written (Byte)
system.loc_mem_ctrl.dram.avgRdBW         11575.158651                       # Average DRAM read bandwidth in MiBytes/s ((Byte/Second))
system.loc_mem_ctrl.dram.avgWrBW          5879.115302                       # Average DRAM write bandwidth in MiBytes/s ((Byte/Second))
system.loc_mem_ctrl.dram.peakBW              19207.00                       # Theoretical peak bandwidth in MiByte/s ((Byte/Second))
system.loc_mem_ctrl.dram.busUtil                90.87                       # Data bus utilization in percentage (Ratio)
system.loc_mem_ctrl.dram.busUtilRead            60.27                       # Data bus utilization in percentage for reads (Ratio)
system.loc_mem_ctrl.dram.busUtilWrite           30.61                       # Data bus utilization in percentage for writes (Ratio)
system.loc_mem_ctrl.dram.pageHitRate             0.02                       # Row buffer hit rate, read and write combined (Ratio)
system.loc_mem_ctrl.dram.power_state.pwrStateResidencyTicks::UNDEFINED  10000002548                       # Cumulative time (in ticks) in various power states (Tick)
system.loc_mem_ctrl.dram.rank0.actEnergy 4248410755.679996                       # Energy for activate commands per rank (pJ) (Joule)
system.loc_mem_ctrl.dram.rank0.preEnergy 5648153730.441602                       # Energy for precharge commands per rank (pJ) (Joule)
system.loc_mem_ctrl.dram.rank0.readEnergy 3799393506.451200                       # Energy for read commands per rank (pJ) (Joule)
system.loc_mem_ctrl.dram.rank0.writeEnergy 1726239627.840003                       # Energy for write commands per rank (pJ) (Joule)
system.loc_mem_ctrl.dram.rank0.refreshEnergy 1778824873.324749                       # Energy for refresh commands per rank (pJ) (Joule)
system.loc_mem_ctrl.dram.rank0.actBackEnergy 8452503781.545596                       # Energy for active background per rank (pJ) (Joule)
system.loc_mem_ctrl.dram.rank0.preBackEnergy 33422497.651200                       # Energy for precharge background per rank (pJ) (Joule)
system.loc_mem_ctrl.dram.rank0.actPowerDownEnergy            0                       # Energy for active power-down per rank (pJ) (Joule)
system.loc_mem_ctrl.dram.rank0.prePowerDownEnergy            0                       # Energy for precharge power-down per rank (pJ) (Joule)
system.loc_mem_ctrl.dram.rank0.selfRefreshEnergy            0                       # Energy for self refresh per rank (pJ) (Joule)
system.loc_mem_ctrl.dram.rank0.totalEnergy 25686948772.934387                       # Total energy per rank (pJ) (Joule)
system.loc_mem_ctrl.dram.rank0.averagePower  2568.694223                       # Core power per rank (mW) (Watt)
system.loc_mem_ctrl.dram.rank0.totalIdleTime            0                       # Total Idle time Per DRAM Rank (Tick)
system.loc_mem_ctrl.dram.rank0.pwrStateTime::IDLE     15667888                       # Time in different power states (Tick)
system.loc_mem_ctrl.dram.rank0.pwrStateTime::REF    449400000                       # Time in different power states (Tick)
system.loc_mem_ctrl.dram.rank0.pwrStateTime::SREF            0                       # Time in different power states (Tick)
system.loc_mem_ctrl.dram.rank0.pwrStateTime::PRE_PDN            0                       # Time in different power states (Tick)
system.loc_mem_ctrl.dram.rank0.pwrStateTime::ACT   9534934660                       # Time in different power states (Tick)
system.loc_mem_ctrl.dram.rank0.pwrStateTime::ACT_PDN            0                       # Time in different power states (Tick)
system.loc_mem_ctrl.dram.rank1.actEnergy 4255159735.008001                       # Energy for activate commands per rank (pJ) (Joule)
system.loc_mem_ctrl.dram.rank1.preEnergy 5657130558.273599                       # Energy for precharge commands per rank (pJ) (Joule)
system.loc_mem_ctrl.dram.rank1.readEnergy 3808197327.513595                       # Energy for read commands per rank (pJ) (Joule)
system.loc_mem_ctrl.dram.rank1.writeEnergy 1726359899.712000                       # Energy for write commands per rank (pJ) (Joule)
system.loc_mem_ctrl.dram.rank1.refreshEnergy 1778824873.324749                       # Energy for refresh commands per rank (pJ) (Joule)
system.loc_mem_ctrl.dram.rank1.actBackEnergy 8454055096.771192                       # Energy for active background per rank (pJ) (Joule)
system.loc_mem_ctrl.dram.rank1.preBackEnergy 32230526.630400                       # Energy for precharge background per rank (pJ) (Joule)
system.loc_mem_ctrl.dram.rank1.actPowerDownEnergy            0                       # Energy for active power-down per rank (pJ) (Joule)
system.loc_mem_ctrl.dram.rank1.prePowerDownEnergy            0                       # Energy for precharge power-down per rank (pJ) (Joule)
system.loc_mem_ctrl.dram.rank1.selfRefreshEnergy            0                       # Energy for self refresh per rank (pJ) (Joule)
system.loc_mem_ctrl.dram.rank1.totalEnergy 25711958017.233597                       # Total energy per rank (pJ) (Joule)
system.loc_mem_ctrl.dram.rank1.averagePower  2571.195147                       # Core power per rank (mW) (Watt)
system.loc_mem_ctrl.dram.rank1.totalIdleTime            0                       # Total Idle time Per DRAM Rank (Tick)
system.loc_mem_ctrl.dram.rank1.pwrStateTime::IDLE     13895414                       # Time in different power states (Tick)
system.loc_mem_ctrl.dram.rank1.pwrStateTime::REF    449400000                       # Time in different power states (Tick)
system.loc_mem_ctrl.dram.rank1.pwrStateTime::SREF            0                       # Time in different power states (Tick)
system.loc_mem_ctrl.dram.rank1.pwrStateTime::PRE_PDN            0                       # Time in different power states (Tick)
system.loc_mem_ctrl.dram.rank1.pwrStateTime::ACT   9536707134                       # Time in different power states (Tick)
system.loc_mem_ctrl.dram.rank1.pwrStateTime::ACT_PDN            0                       # Time in different power states (Tick)
system.loc_mem_ctrl.power_state.pwrStateResidencyTicks::UNDEFINED  10000002548                       # Cumulative time (in ticks) in various power states (Tick)
system.mem_ctrl.bytesRead::generator        115750720                       # Number of bytes read from this memory (Byte)
system.mem_ctrl.bytesRead::total            115750720                       # Number of bytes read from this memory (Byte)
system.mem_ctrl.bytesWritten::generator      58802496                       # Number of bytes written to this memory (Byte)
system.mem_ctrl.bytesWritten::total          58802496                       # Number of bytes written to this memory (Byte)
system.mem_ctrl.numReads::generator           1808605                       # Number of read requests responded to by this memory (Count)
system.mem_ctrl.numReads::total               1808605                       # Number of read requests responded to by this memory (Count)
system.mem_ctrl.numWrites::generator           918789                       # Number of write requests responded to by this memory (Count)
system.mem_ctrl.numWrites::total               918789                       # Number of write requests responded to by this memory (Count)
system.mem_ctrl.bwRead::generator         11575069051                       # Total read bandwidth from this memory ((Byte/Second))
system.mem_ctrl.bwRead::total             11575069051                       # Total read bandwidth from this memory ((Byte/Second))
system.mem_ctrl.bwWrite::generator         5880248102                       # Write bandwidth from this memory ((Byte/Second))
system.mem_ctrl.bwWrite::total             5880248102                       # Write bandwidth from this memory ((Byte/Second))
system.mem_ctrl.bwTotal::generator        17455317152                       # Total bandwidth to/from this memory ((Byte/Second))
system.mem_ctrl.bwTotal::total            17455317152                       # Total bandwidth to/from this memory ((Byte/Second))
system.mem_ctrl.readReqs                      1808812                       # Number of read requests accepted (Count)
system.mem_ctrl.writeReqs                      918789                       # Number of write requests accepted (Count)
system.mem_ctrl.servicedByWrQ                       3                       # Number of controller read bursts serviced by the write queue (Count)
system.mem_ctrl.mergedWrBursts                      1                       # Number of controller write bursts merged with an existing one (Count)
system.mem_ctrl.numRdRetry                    1799801                       # Number of times read queue was full causing retry (Count)
system.mem_ctrl.numWrRetry                     914218                       # Number of times write queue was full causing retry (Count)
system.mem_ctrl.readPktSize::0                      0                       # Read request sizes (log2) (Count)
system.mem_ctrl.readPktSize::1                      0                       # Read request sizes (log2) (Count)
system.mem_ctrl.readPktSize::2                      0                       # Read request sizes (log2) (Count)
system.mem_ctrl.readPktSize::3                      0                       # Read request sizes (log2) (Count)
system.mem_ctrl.readPktSize::4                      0                       # Read request sizes (log2) (Count)
system.mem_ctrl.readPktSize::5                      0                       # Read request sizes (log2) (Count)
system.mem_ctrl.readPktSize::6                1808812                       # Read request sizes (log2) (Count)
system.mem_ctrl.writePktSize::0                     0                       # Write request sizes (log2) (Count)
system.mem_ctrl.writePktSize::1                     0                       # Write request sizes (log2) (Count)
system.mem_ctrl.writePktSize::2                     0                       # Write request sizes (log2) (Count)
system.mem_ctrl.writePktSize::3                     0                       # Write request sizes (log2) (Count)
system.mem_ctrl.writePktSize::4                     0                       # Write request sizes (log2) (Count)
system.mem_ctrl.writePktSize::5                     0                       # Write request sizes (log2) (Count)
system.mem_ctrl.writePktSize::6                918789                       # Write request sizes (log2) (Count)
system.mem_ctrl.bytesReadWrQ                      192                       # Total number of bytes read from write queue (Byte)
system.mem_ctrl.bytesReadSys                115763968                       # Total read bytes from the system interface side (Byte)
system.mem_ctrl.bytesWrittenSys              58802496                       # Total written bytes from the system interface side (Byte)
system.mem_ctrl.avgRdBWSys               11576393850.33484650                       # Average system read bandwidth in Byte/s ((Byte/Second))
system.mem_ctrl.avgWrBWSys               5880248101.71278381                       # Average system write bandwidth in Byte/s ((Byte/Second))
system.mem_ctrl.totGap                   18446603616367224832                       # Total gap between requests (Tick)
system.mem_ctrl.avgGap                   6762940626714.55                       # Average gap between requests ((Tick/Count))
system.mem_ctrl.avgORBLen                    255.9929                       # Average ORB length ((Count/Tick))
system.mem_ctrl.avgLocRdQLenStrt                92.90                       # Average local read queue length ((Count/Tick))
system.mem_ctrl.avgLocWrQLenStrt                99.72                       # Average local write queue length ((Count/Tick))
system.mem_ctrl.avgFarRdQLenStrt                 0.00                       # Average far read queue length ((Count/Tick))
system.mem_ctrl.avgFarWrQLenStrt                 0.00                       # Average far write queue length ((Count/Tick))
system.mem_ctrl.avgLocRdQLenEnq                 93.88                       # Average local read queue length when enqueuing ((Count/Tick))
system.mem_ctrl.avgLocWrQLenEnq                100.75                       # Average local write queue length when enqueuing ((Count/Tick))
system.mem_ctrl.avgFarRdQLenEnq                  0.00                       # Average far read queue length when enqueuing ((Count/Tick))
system.mem_ctrl.avgFarWrQLenEnq                  0.00                       # Average far write queue length when enqueuing ((Count/Tick))
system.mem_ctrl.numWrBacks                          0                       # Total number of write backs from DRAM cache to main memory (Unspecified)
system.mem_ctrl.totNumConf                        654                       # Total number of packets conflicted on DRAM cache (Unspecified)
system.mem_ctrl.totNumORBFull                 2714019                       # Total number of packets ORB full (Unspecified)
system.mem_ctrl.totNumCRBFull                       0                       # Total number of packets conflicted yet couldn't enter confBuffer (Unspecified)
system.mem_ctrl.maxNumConf                          2                       # Maximum number of packets conflicted on DRAM cache (Unspecified)
system.mem_ctrl.sentLocRdPort                 1808675                       # stat (Unspecified)
system.mem_ctrl.sentLocWrPort                  918740                       # stat (Unspecified)
system.mem_ctrl.failedLocRdPort               2704482                       # stat (Unspecified)
system.mem_ctrl.failedLocWrPort               2408872                       # stat (Unspecified)
system.mem_ctrl.recvdRdPort                         0                       # stat (Unspecified)
system.mem_ctrl.sentFarRdPort                       0                       # stat (Unspecified)
system.mem_ctrl.sentFarWrPort                       0                       # stat (Unspecified)
system.mem_ctrl.failedFarRdPort                     0                       # stat (Unspecified)
system.mem_ctrl.failedFarWrPort                     0                       # stat (Unspecified)
system.mem_ctrl.totPktsServiceTime         2558941662                       # stat (Unspecified)
system.mem_ctrl.totPktsORBTime           4595701777657                       # stat (Unspecified)
system.mem_ctrl.totTimeFarRdtoSend                  0                       # stat (Unspecified)
system.mem_ctrl.totTimeFarRdtoRecv                  0                       # stat (Unspecified)
system.mem_ctrl.totTimeFarWrtoSend                  0                       # stat (Unspecified)
system.mem_ctrl.totTimeInLocRead           1550135051                       # stat (Unspecified)
system.mem_ctrl.totTimeInLocWrite          1008383695                       # stat (Unspecified)
system.mem_ctrl.totTimeInFarRead                    0                       # stat (Unspecified)
system.mem_ctrl.numTotHits                    2727601                       # stat (Unspecified)
system.mem_ctrl.numTotMisses                        0                       # stat (Unspecified)
system.mem_ctrl.numColdMisses                       0                       # stat (Unspecified)
system.mem_ctrl.numHotMisses                        0                       # stat (Unspecified)
system.mem_ctrl.numRdMissClean                      0                       # stat (Unspecified)
system.mem_ctrl.numRdMissDirty                      0                       # stat (Unspecified)
system.mem_ctrl.numRdHit                      1808812                       # stat (Unspecified)
system.mem_ctrl.numWrMissClean                      0                       # stat (Unspecified)
system.mem_ctrl.numWrMissDirty                      0                       # stat (Unspecified)
system.mem_ctrl.numWrHit                       918789                       # stat (Unspecified)
system.mem_ctrl.numRdHitDirty                  603859                       # stat (Unspecified)
system.mem_ctrl.numRdHitClean                 1204953                       # stat (Unspecified)
system.mem_ctrl.numWrHitDirty                  306695                       # stat (Unspecified)
system.mem_ctrl.numWrHitClean                  612094                       # stat (Unspecified)
system.mem_ctrl.power_state.pwrStateResidencyTicks::UNDEFINED  10000002548                       # Cumulative time (in ticks) in various power states (Tick)
system.workload.inst.arm                            0                       # number of arm instructions executed (Count)
system.workload.inst.quiesce                        0                       # number of quiesce instructions executed (Count)

---------- End Simulation Statistics   ----------
