
---------- Begin Simulation Statistics ----------
simSeconds                                   0.582689                       # Number of seconds simulated (Second)
simTicks                                 582689499000                       # Number of ticks simulated (Tick)
finalTick                                19497202267750                       # Number of ticks from beginning of simulation (restored from checkpoints and never reset) (Tick)
simFreq                                  1000000000000                       # The number of ticks per simulated second ((Tick/Second))
hostSeconds                                   3443.14                       # Real time elapsed on the host (Second)
hostTickRate                                169232190                       # The number of ticks simulated per host second (ticks/s) ((Tick/Second))
hostMemory                                   18977516                       # Number of bytes of host memory used (Byte)
simInsts                                   5768941046                       # Number of instructions simulated (Count)
simOps                                     6753678987                       # Number of ops (including micro ops) simulated (Count)
hostInstRate                                  1675490                       # Simulator instruction rate (inst/s) ((Count/Second))
hostOpRate                                    1961490                       # Simulator op (including micro ops) rate (op/s) ((Count/Second))
system.atomicCpu0.numCycles                         0                       # Number of cpu cycles simulated (Cycle)
system.atomicCpu0.numWorkItemsStarted               0                       # Number of work items this cpu started (Count)
system.atomicCpu0.numWorkItemsCompleted             0                       # Number of work items this cpu completed (Count)
system.atomicCpu0.exec_context.thread_0.numInsts            0                       # Number of instructions committed (Count)
system.atomicCpu0.exec_context.thread_0.numOps            0                       # Number of ops (including micro ops) committed (Count)
system.atomicCpu0.exec_context.thread_0.numIntAluAccesses            0                       # Number of integer alu accesses (Count)
system.atomicCpu0.exec_context.thread_0.numFpAluAccesses            0                       # Number of float alu accesses (Count)
system.atomicCpu0.exec_context.thread_0.numVecAluAccesses            0                       # Number of vector alu accesses (Count)
system.atomicCpu0.exec_context.thread_0.numCallsReturns            0                       # Number of times a function call or return occured (Count)
system.atomicCpu0.exec_context.thread_0.numCondCtrlInsts            0                       # Number of instructions that are conditional controls (Count)
system.atomicCpu0.exec_context.thread_0.numIntInsts            0                       # Number of integer instructions (Count)
system.atomicCpu0.exec_context.thread_0.numFpInsts            0                       # Number of float instructions (Count)
system.atomicCpu0.exec_context.thread_0.numVecInsts            0                       # Number of vector instructions (Count)
system.atomicCpu0.exec_context.thread_0.numIntRegReads            0                       # Number of times the integer registers were read (Count)
system.atomicCpu0.exec_context.thread_0.numIntRegWrites            0                       # Number of times the integer registers were written (Count)
system.atomicCpu0.exec_context.thread_0.numFpRegReads            0                       # Number of times the floating registers were read (Count)
system.atomicCpu0.exec_context.thread_0.numFpRegWrites            0                       # Number of times the floating registers were written (Count)
system.atomicCpu0.exec_context.thread_0.numVecRegReads            0                       # Number of times the vector registers were read (Count)
system.atomicCpu0.exec_context.thread_0.numVecRegWrites            0                       # Number of times the vector registers were written (Count)
system.atomicCpu0.exec_context.thread_0.numVecPredRegReads            0                       # Number of times the predicate registers were read (Count)
system.atomicCpu0.exec_context.thread_0.numVecPredRegWrites            0                       # Number of times the predicate registers were written (Count)
system.atomicCpu0.exec_context.thread_0.numMiscRegReads            0                       # Number of times the Misc registers were read (Count)
system.atomicCpu0.exec_context.thread_0.numMiscRegWrites            0                       # Number of times the Misc registers were written (Count)
system.atomicCpu0.exec_context.thread_0.numMemRefs            0                       # Number of memory refs (Count)
system.atomicCpu0.exec_context.thread_0.numLoadInsts            0                       # Number of load instructions (Count)
system.atomicCpu0.exec_context.thread_0.numStoreInsts            0                       # Number of store instructions (Count)
system.atomicCpu0.exec_context.thread_0.numIdleCycles            0                       # Number of idle cycles (Cycle)
system.atomicCpu0.exec_context.thread_0.numBusyCycles            0                       # Number of busy cycles (Cycle)
system.atomicCpu0.exec_context.thread_0.notIdleFraction            0                       # Percentage of non-idle cycles (Ratio)
system.atomicCpu0.exec_context.thread_0.idleFraction            1                       # Percentage of idle cycles (Ratio)
system.atomicCpu0.exec_context.thread_0.statExecutedInstType::No_OpClass            0                       # Class of executed instruction. (Count)
system.atomicCpu0.exec_context.thread_0.statExecutedInstType::IntAlu            0                       # Class of executed instruction. (Count)
system.atomicCpu0.exec_context.thread_0.statExecutedInstType::IntMult            0                       # Class of executed instruction. (Count)
system.atomicCpu0.exec_context.thread_0.statExecutedInstType::IntDiv            0                       # Class of executed instruction. (Count)
system.atomicCpu0.exec_context.thread_0.statExecutedInstType::FloatAdd            0                       # Class of executed instruction. (Count)
system.atomicCpu0.exec_context.thread_0.statExecutedInstType::FloatCmp            0                       # Class of executed instruction. (Count)
system.atomicCpu0.exec_context.thread_0.statExecutedInstType::FloatCvt            0                       # Class of executed instruction. (Count)
system.atomicCpu0.exec_context.thread_0.statExecutedInstType::FloatMult            0                       # Class of executed instruction. (Count)
system.atomicCpu0.exec_context.thread_0.statExecutedInstType::FloatMultAcc            0                       # Class of executed instruction. (Count)
system.atomicCpu0.exec_context.thread_0.statExecutedInstType::FloatDiv            0                       # Class of executed instruction. (Count)
system.atomicCpu0.exec_context.thread_0.statExecutedInstType::FloatMisc            0                       # Class of executed instruction. (Count)
system.atomicCpu0.exec_context.thread_0.statExecutedInstType::FloatSqrt            0                       # Class of executed instruction. (Count)
system.atomicCpu0.exec_context.thread_0.statExecutedInstType::SimdAdd            0                       # Class of executed instruction. (Count)
system.atomicCpu0.exec_context.thread_0.statExecutedInstType::SimdAddAcc            0                       # Class of executed instruction. (Count)
system.atomicCpu0.exec_context.thread_0.statExecutedInstType::SimdAlu            0                       # Class of executed instruction. (Count)
system.atomicCpu0.exec_context.thread_0.statExecutedInstType::SimdCmp            0                       # Class of executed instruction. (Count)
system.atomicCpu0.exec_context.thread_0.statExecutedInstType::SimdCvt            0                       # Class of executed instruction. (Count)
system.atomicCpu0.exec_context.thread_0.statExecutedInstType::SimdMisc            0                       # Class of executed instruction. (Count)
system.atomicCpu0.exec_context.thread_0.statExecutedInstType::SimdMult            0                       # Class of executed instruction. (Count)
system.atomicCpu0.exec_context.thread_0.statExecutedInstType::SimdMultAcc            0                       # Class of executed instruction. (Count)
system.atomicCpu0.exec_context.thread_0.statExecutedInstType::SimdShift            0                       # Class of executed instruction. (Count)
system.atomicCpu0.exec_context.thread_0.statExecutedInstType::SimdShiftAcc            0                       # Class of executed instruction. (Count)
system.atomicCpu0.exec_context.thread_0.statExecutedInstType::SimdDiv            0                       # Class of executed instruction. (Count)
system.atomicCpu0.exec_context.thread_0.statExecutedInstType::SimdSqrt            0                       # Class of executed instruction. (Count)
system.atomicCpu0.exec_context.thread_0.statExecutedInstType::SimdFloatAdd            0                       # Class of executed instruction. (Count)
system.atomicCpu0.exec_context.thread_0.statExecutedInstType::SimdFloatAlu            0                       # Class of executed instruction. (Count)
system.atomicCpu0.exec_context.thread_0.statExecutedInstType::SimdFloatCmp            0                       # Class of executed instruction. (Count)
system.atomicCpu0.exec_context.thread_0.statExecutedInstType::SimdFloatCvt            0                       # Class of executed instruction. (Count)
system.atomicCpu0.exec_context.thread_0.statExecutedInstType::SimdFloatDiv            0                       # Class of executed instruction. (Count)
system.atomicCpu0.exec_context.thread_0.statExecutedInstType::SimdFloatMisc            0                       # Class of executed instruction. (Count)
system.atomicCpu0.exec_context.thread_0.statExecutedInstType::SimdFloatMult            0                       # Class of executed instruction. (Count)
system.atomicCpu0.exec_context.thread_0.statExecutedInstType::SimdFloatMultAcc            0                       # Class of executed instruction. (Count)
system.atomicCpu0.exec_context.thread_0.statExecutedInstType::SimdFloatSqrt            0                       # Class of executed instruction. (Count)
system.atomicCpu0.exec_context.thread_0.statExecutedInstType::SimdReduceAdd            0                       # Class of executed instruction. (Count)
system.atomicCpu0.exec_context.thread_0.statExecutedInstType::SimdReduceAlu            0                       # Class of executed instruction. (Count)
system.atomicCpu0.exec_context.thread_0.statExecutedInstType::SimdReduceCmp            0                       # Class of executed instruction. (Count)
system.atomicCpu0.exec_context.thread_0.statExecutedInstType::SimdFloatReduceAdd            0                       # Class of executed instruction. (Count)
system.atomicCpu0.exec_context.thread_0.statExecutedInstType::SimdFloatReduceCmp            0                       # Class of executed instruction. (Count)
system.atomicCpu0.exec_context.thread_0.statExecutedInstType::SimdAes            0                       # Class of executed instruction. (Count)
system.atomicCpu0.exec_context.thread_0.statExecutedInstType::SimdAesMix            0                       # Class of executed instruction. (Count)
system.atomicCpu0.exec_context.thread_0.statExecutedInstType::SimdSha1Hash            0                       # Class of executed instruction. (Count)
system.atomicCpu0.exec_context.thread_0.statExecutedInstType::SimdSha1Hash2            0                       # Class of executed instruction. (Count)
system.atomicCpu0.exec_context.thread_0.statExecutedInstType::SimdSha256Hash            0                       # Class of executed instruction. (Count)
system.atomicCpu0.exec_context.thread_0.statExecutedInstType::SimdSha256Hash2            0                       # Class of executed instruction. (Count)
system.atomicCpu0.exec_context.thread_0.statExecutedInstType::SimdShaSigma2            0                       # Class of executed instruction. (Count)
system.atomicCpu0.exec_context.thread_0.statExecutedInstType::SimdShaSigma3            0                       # Class of executed instruction. (Count)
system.atomicCpu0.exec_context.thread_0.statExecutedInstType::SimdPredAlu            0                       # Class of executed instruction. (Count)
system.atomicCpu0.exec_context.thread_0.statExecutedInstType::MemRead            0                       # Class of executed instruction. (Count)
system.atomicCpu0.exec_context.thread_0.statExecutedInstType::MemWrite            0                       # Class of executed instruction. (Count)
system.atomicCpu0.exec_context.thread_0.statExecutedInstType::FloatMemRead            0                       # Class of executed instruction. (Count)
system.atomicCpu0.exec_context.thread_0.statExecutedInstType::FloatMemWrite            0                       # Class of executed instruction. (Count)
system.atomicCpu0.exec_context.thread_0.statExecutedInstType::IprAccess            0                       # Class of executed instruction. (Count)
system.atomicCpu0.exec_context.thread_0.statExecutedInstType::InstPrefetch            0                       # Class of executed instruction. (Count)
system.atomicCpu0.exec_context.thread_0.statExecutedInstType::total            0                       # Class of executed instruction. (Count)
system.atomicCpu0.mmu.dtb.rdAccesses                0                       # TLB accesses on read requests (Count)
system.atomicCpu0.mmu.dtb.wrAccesses                0                       # TLB accesses on write requests (Count)
system.atomicCpu0.mmu.dtb.rdMisses                  0                       # TLB misses on read requests (Count)
system.atomicCpu0.mmu.dtb.wrMisses                  0                       # TLB misses on write requests (Count)
system.atomicCpu0.mmu.dtb.walker.power_state.pwrStateResidencyTicks::UNDEFINED 19497202267750                       # Cumulative time (in ticks) in various power states (Tick)
system.atomicCpu0.mmu.itb.rdAccesses                0                       # TLB accesses on read requests (Count)
system.atomicCpu0.mmu.itb.wrAccesses                0                       # TLB accesses on write requests (Count)
system.atomicCpu0.mmu.itb.rdMisses                  0                       # TLB misses on read requests (Count)
system.atomicCpu0.mmu.itb.wrMisses                  0                       # TLB misses on write requests (Count)
system.atomicCpu0.mmu.itb.walker.power_state.pwrStateResidencyTicks::UNDEFINED 19497202267750                       # Cumulative time (in ticks) in various power states (Tick)
system.atomicCpu0.power_state.pwrStateResidencyTicks::OFF 19497202267750                       # Cumulative time (in ticks) in various power states (Tick)
system.atomicCpu0.thread_0.numInsts                 0                       # Number of Instructions committed (Count)
system.atomicCpu0.thread_0.numOps                   0                       # Number of Ops committed (Count)
system.atomicCpu0.thread_0.numMemRefs               0                       # Number of Memory References (Count)
system.atomicCpu1.numCycles                         0                       # Number of cpu cycles simulated (Cycle)
system.atomicCpu1.numWorkItemsStarted               0                       # Number of work items this cpu started (Count)
system.atomicCpu1.numWorkItemsCompleted             0                       # Number of work items this cpu completed (Count)
system.atomicCpu1.exec_context.thread_0.numInsts            0                       # Number of instructions committed (Count)
system.atomicCpu1.exec_context.thread_0.numOps            0                       # Number of ops (including micro ops) committed (Count)
system.atomicCpu1.exec_context.thread_0.numIntAluAccesses            0                       # Number of integer alu accesses (Count)
system.atomicCpu1.exec_context.thread_0.numFpAluAccesses            0                       # Number of float alu accesses (Count)
system.atomicCpu1.exec_context.thread_0.numVecAluAccesses            0                       # Number of vector alu accesses (Count)
system.atomicCpu1.exec_context.thread_0.numCallsReturns            0                       # Number of times a function call or return occured (Count)
system.atomicCpu1.exec_context.thread_0.numCondCtrlInsts            0                       # Number of instructions that are conditional controls (Count)
system.atomicCpu1.exec_context.thread_0.numIntInsts            0                       # Number of integer instructions (Count)
system.atomicCpu1.exec_context.thread_0.numFpInsts            0                       # Number of float instructions (Count)
system.atomicCpu1.exec_context.thread_0.numVecInsts            0                       # Number of vector instructions (Count)
system.atomicCpu1.exec_context.thread_0.numIntRegReads            0                       # Number of times the integer registers were read (Count)
system.atomicCpu1.exec_context.thread_0.numIntRegWrites            0                       # Number of times the integer registers were written (Count)
system.atomicCpu1.exec_context.thread_0.numFpRegReads            0                       # Number of times the floating registers were read (Count)
system.atomicCpu1.exec_context.thread_0.numFpRegWrites            0                       # Number of times the floating registers were written (Count)
system.atomicCpu1.exec_context.thread_0.numVecRegReads            0                       # Number of times the vector registers were read (Count)
system.atomicCpu1.exec_context.thread_0.numVecRegWrites            0                       # Number of times the vector registers were written (Count)
system.atomicCpu1.exec_context.thread_0.numVecPredRegReads            0                       # Number of times the predicate registers were read (Count)
system.atomicCpu1.exec_context.thread_0.numVecPredRegWrites            0                       # Number of times the predicate registers were written (Count)
system.atomicCpu1.exec_context.thread_0.numMiscRegReads            0                       # Number of times the Misc registers were read (Count)
system.atomicCpu1.exec_context.thread_0.numMiscRegWrites            0                       # Number of times the Misc registers were written (Count)
system.atomicCpu1.exec_context.thread_0.numMemRefs            0                       # Number of memory refs (Count)
system.atomicCpu1.exec_context.thread_0.numLoadInsts            0                       # Number of load instructions (Count)
system.atomicCpu1.exec_context.thread_0.numStoreInsts            0                       # Number of store instructions (Count)
system.atomicCpu1.exec_context.thread_0.numIdleCycles            0                       # Number of idle cycles (Cycle)
system.atomicCpu1.exec_context.thread_0.numBusyCycles            0                       # Number of busy cycles (Cycle)
system.atomicCpu1.exec_context.thread_0.notIdleFraction            0                       # Percentage of non-idle cycles (Ratio)
system.atomicCpu1.exec_context.thread_0.idleFraction            1                       # Percentage of idle cycles (Ratio)
system.atomicCpu1.exec_context.thread_0.statExecutedInstType::No_OpClass            0                       # Class of executed instruction. (Count)
system.atomicCpu1.exec_context.thread_0.statExecutedInstType::IntAlu            0                       # Class of executed instruction. (Count)
system.atomicCpu1.exec_context.thread_0.statExecutedInstType::IntMult            0                       # Class of executed instruction. (Count)
system.atomicCpu1.exec_context.thread_0.statExecutedInstType::IntDiv            0                       # Class of executed instruction. (Count)
system.atomicCpu1.exec_context.thread_0.statExecutedInstType::FloatAdd            0                       # Class of executed instruction. (Count)
system.atomicCpu1.exec_context.thread_0.statExecutedInstType::FloatCmp            0                       # Class of executed instruction. (Count)
system.atomicCpu1.exec_context.thread_0.statExecutedInstType::FloatCvt            0                       # Class of executed instruction. (Count)
system.atomicCpu1.exec_context.thread_0.statExecutedInstType::FloatMult            0                       # Class of executed instruction. (Count)
system.atomicCpu1.exec_context.thread_0.statExecutedInstType::FloatMultAcc            0                       # Class of executed instruction. (Count)
system.atomicCpu1.exec_context.thread_0.statExecutedInstType::FloatDiv            0                       # Class of executed instruction. (Count)
system.atomicCpu1.exec_context.thread_0.statExecutedInstType::FloatMisc            0                       # Class of executed instruction. (Count)
system.atomicCpu1.exec_context.thread_0.statExecutedInstType::FloatSqrt            0                       # Class of executed instruction. (Count)
system.atomicCpu1.exec_context.thread_0.statExecutedInstType::SimdAdd            0                       # Class of executed instruction. (Count)
system.atomicCpu1.exec_context.thread_0.statExecutedInstType::SimdAddAcc            0                       # Class of executed instruction. (Count)
system.atomicCpu1.exec_context.thread_0.statExecutedInstType::SimdAlu            0                       # Class of executed instruction. (Count)
system.atomicCpu1.exec_context.thread_0.statExecutedInstType::SimdCmp            0                       # Class of executed instruction. (Count)
system.atomicCpu1.exec_context.thread_0.statExecutedInstType::SimdCvt            0                       # Class of executed instruction. (Count)
system.atomicCpu1.exec_context.thread_0.statExecutedInstType::SimdMisc            0                       # Class of executed instruction. (Count)
system.atomicCpu1.exec_context.thread_0.statExecutedInstType::SimdMult            0                       # Class of executed instruction. (Count)
system.atomicCpu1.exec_context.thread_0.statExecutedInstType::SimdMultAcc            0                       # Class of executed instruction. (Count)
system.atomicCpu1.exec_context.thread_0.statExecutedInstType::SimdShift            0                       # Class of executed instruction. (Count)
system.atomicCpu1.exec_context.thread_0.statExecutedInstType::SimdShiftAcc            0                       # Class of executed instruction. (Count)
system.atomicCpu1.exec_context.thread_0.statExecutedInstType::SimdDiv            0                       # Class of executed instruction. (Count)
system.atomicCpu1.exec_context.thread_0.statExecutedInstType::SimdSqrt            0                       # Class of executed instruction. (Count)
system.atomicCpu1.exec_context.thread_0.statExecutedInstType::SimdFloatAdd            0                       # Class of executed instruction. (Count)
system.atomicCpu1.exec_context.thread_0.statExecutedInstType::SimdFloatAlu            0                       # Class of executed instruction. (Count)
system.atomicCpu1.exec_context.thread_0.statExecutedInstType::SimdFloatCmp            0                       # Class of executed instruction. (Count)
system.atomicCpu1.exec_context.thread_0.statExecutedInstType::SimdFloatCvt            0                       # Class of executed instruction. (Count)
system.atomicCpu1.exec_context.thread_0.statExecutedInstType::SimdFloatDiv            0                       # Class of executed instruction. (Count)
system.atomicCpu1.exec_context.thread_0.statExecutedInstType::SimdFloatMisc            0                       # Class of executed instruction. (Count)
system.atomicCpu1.exec_context.thread_0.statExecutedInstType::SimdFloatMult            0                       # Class of executed instruction. (Count)
system.atomicCpu1.exec_context.thread_0.statExecutedInstType::SimdFloatMultAcc            0                       # Class of executed instruction. (Count)
system.atomicCpu1.exec_context.thread_0.statExecutedInstType::SimdFloatSqrt            0                       # Class of executed instruction. (Count)
system.atomicCpu1.exec_context.thread_0.statExecutedInstType::SimdReduceAdd            0                       # Class of executed instruction. (Count)
system.atomicCpu1.exec_context.thread_0.statExecutedInstType::SimdReduceAlu            0                       # Class of executed instruction. (Count)
system.atomicCpu1.exec_context.thread_0.statExecutedInstType::SimdReduceCmp            0                       # Class of executed instruction. (Count)
system.atomicCpu1.exec_context.thread_0.statExecutedInstType::SimdFloatReduceAdd            0                       # Class of executed instruction. (Count)
system.atomicCpu1.exec_context.thread_0.statExecutedInstType::SimdFloatReduceCmp            0                       # Class of executed instruction. (Count)
system.atomicCpu1.exec_context.thread_0.statExecutedInstType::SimdAes            0                       # Class of executed instruction. (Count)
system.atomicCpu1.exec_context.thread_0.statExecutedInstType::SimdAesMix            0                       # Class of executed instruction. (Count)
system.atomicCpu1.exec_context.thread_0.statExecutedInstType::SimdSha1Hash            0                       # Class of executed instruction. (Count)
system.atomicCpu1.exec_context.thread_0.statExecutedInstType::SimdSha1Hash2            0                       # Class of executed instruction. (Count)
system.atomicCpu1.exec_context.thread_0.statExecutedInstType::SimdSha256Hash            0                       # Class of executed instruction. (Count)
system.atomicCpu1.exec_context.thread_0.statExecutedInstType::SimdSha256Hash2            0                       # Class of executed instruction. (Count)
system.atomicCpu1.exec_context.thread_0.statExecutedInstType::SimdShaSigma2            0                       # Class of executed instruction. (Count)
system.atomicCpu1.exec_context.thread_0.statExecutedInstType::SimdShaSigma3            0                       # Class of executed instruction. (Count)
system.atomicCpu1.exec_context.thread_0.statExecutedInstType::SimdPredAlu            0                       # Class of executed instruction. (Count)
system.atomicCpu1.exec_context.thread_0.statExecutedInstType::MemRead            0                       # Class of executed instruction. (Count)
system.atomicCpu1.exec_context.thread_0.statExecutedInstType::MemWrite            0                       # Class of executed instruction. (Count)
system.atomicCpu1.exec_context.thread_0.statExecutedInstType::FloatMemRead            0                       # Class of executed instruction. (Count)
system.atomicCpu1.exec_context.thread_0.statExecutedInstType::FloatMemWrite            0                       # Class of executed instruction. (Count)
system.atomicCpu1.exec_context.thread_0.statExecutedInstType::IprAccess            0                       # Class of executed instruction. (Count)
system.atomicCpu1.exec_context.thread_0.statExecutedInstType::InstPrefetch            0                       # Class of executed instruction. (Count)
system.atomicCpu1.exec_context.thread_0.statExecutedInstType::total            0                       # Class of executed instruction. (Count)
system.atomicCpu1.mmu.dtb.rdAccesses                0                       # TLB accesses on read requests (Count)
system.atomicCpu1.mmu.dtb.wrAccesses                0                       # TLB accesses on write requests (Count)
system.atomicCpu1.mmu.dtb.rdMisses                  0                       # TLB misses on read requests (Count)
system.atomicCpu1.mmu.dtb.wrMisses                  0                       # TLB misses on write requests (Count)
system.atomicCpu1.mmu.dtb.walker.power_state.pwrStateResidencyTicks::UNDEFINED 19497202267750                       # Cumulative time (in ticks) in various power states (Tick)
system.atomicCpu1.mmu.itb.rdAccesses                0                       # TLB accesses on read requests (Count)
system.atomicCpu1.mmu.itb.wrAccesses                0                       # TLB accesses on write requests (Count)
system.atomicCpu1.mmu.itb.rdMisses                  0                       # TLB misses on read requests (Count)
system.atomicCpu1.mmu.itb.wrMisses                  0                       # TLB misses on write requests (Count)
system.atomicCpu1.mmu.itb.walker.power_state.pwrStateResidencyTicks::UNDEFINED 19497202267750                       # Cumulative time (in ticks) in various power states (Tick)
system.atomicCpu1.power_state.pwrStateResidencyTicks::OFF 19497202267750                       # Cumulative time (in ticks) in various power states (Tick)
system.atomicCpu1.thread_0.numInsts                 0                       # Number of Instructions committed (Count)
system.atomicCpu1.thread_0.numOps                   0                       # Number of Ops committed (Count)
system.atomicCpu1.thread_0.numMemRefs               0                       # Number of Memory References (Count)
system.atomicCpu2.numCycles                         0                       # Number of cpu cycles simulated (Cycle)
system.atomicCpu2.numWorkItemsStarted               0                       # Number of work items this cpu started (Count)
system.atomicCpu2.numWorkItemsCompleted             0                       # Number of work items this cpu completed (Count)
system.atomicCpu2.exec_context.thread_0.numInsts            0                       # Number of instructions committed (Count)
system.atomicCpu2.exec_context.thread_0.numOps            0                       # Number of ops (including micro ops) committed (Count)
system.atomicCpu2.exec_context.thread_0.numIntAluAccesses            0                       # Number of integer alu accesses (Count)
system.atomicCpu2.exec_context.thread_0.numFpAluAccesses            0                       # Number of float alu accesses (Count)
system.atomicCpu2.exec_context.thread_0.numVecAluAccesses            0                       # Number of vector alu accesses (Count)
system.atomicCpu2.exec_context.thread_0.numCallsReturns            0                       # Number of times a function call or return occured (Count)
system.atomicCpu2.exec_context.thread_0.numCondCtrlInsts            0                       # Number of instructions that are conditional controls (Count)
system.atomicCpu2.exec_context.thread_0.numIntInsts            0                       # Number of integer instructions (Count)
system.atomicCpu2.exec_context.thread_0.numFpInsts            0                       # Number of float instructions (Count)
system.atomicCpu2.exec_context.thread_0.numVecInsts            0                       # Number of vector instructions (Count)
system.atomicCpu2.exec_context.thread_0.numIntRegReads            0                       # Number of times the integer registers were read (Count)
system.atomicCpu2.exec_context.thread_0.numIntRegWrites            0                       # Number of times the integer registers were written (Count)
system.atomicCpu2.exec_context.thread_0.numFpRegReads            0                       # Number of times the floating registers were read (Count)
system.atomicCpu2.exec_context.thread_0.numFpRegWrites            0                       # Number of times the floating registers were written (Count)
system.atomicCpu2.exec_context.thread_0.numVecRegReads            0                       # Number of times the vector registers were read (Count)
system.atomicCpu2.exec_context.thread_0.numVecRegWrites            0                       # Number of times the vector registers were written (Count)
system.atomicCpu2.exec_context.thread_0.numVecPredRegReads            0                       # Number of times the predicate registers were read (Count)
system.atomicCpu2.exec_context.thread_0.numVecPredRegWrites            0                       # Number of times the predicate registers were written (Count)
system.atomicCpu2.exec_context.thread_0.numMiscRegReads            0                       # Number of times the Misc registers were read (Count)
system.atomicCpu2.exec_context.thread_0.numMiscRegWrites            0                       # Number of times the Misc registers were written (Count)
system.atomicCpu2.exec_context.thread_0.numMemRefs            0                       # Number of memory refs (Count)
system.atomicCpu2.exec_context.thread_0.numLoadInsts            0                       # Number of load instructions (Count)
system.atomicCpu2.exec_context.thread_0.numStoreInsts            0                       # Number of store instructions (Count)
system.atomicCpu2.exec_context.thread_0.numIdleCycles            0                       # Number of idle cycles (Cycle)
system.atomicCpu2.exec_context.thread_0.numBusyCycles            0                       # Number of busy cycles (Cycle)
system.atomicCpu2.exec_context.thread_0.notIdleFraction            0                       # Percentage of non-idle cycles (Ratio)
system.atomicCpu2.exec_context.thread_0.idleFraction            1                       # Percentage of idle cycles (Ratio)
system.atomicCpu2.exec_context.thread_0.statExecutedInstType::No_OpClass            0                       # Class of executed instruction. (Count)
system.atomicCpu2.exec_context.thread_0.statExecutedInstType::IntAlu            0                       # Class of executed instruction. (Count)
system.atomicCpu2.exec_context.thread_0.statExecutedInstType::IntMult            0                       # Class of executed instruction. (Count)
system.atomicCpu2.exec_context.thread_0.statExecutedInstType::IntDiv            0                       # Class of executed instruction. (Count)
system.atomicCpu2.exec_context.thread_0.statExecutedInstType::FloatAdd            0                       # Class of executed instruction. (Count)
system.atomicCpu2.exec_context.thread_0.statExecutedInstType::FloatCmp            0                       # Class of executed instruction. (Count)
system.atomicCpu2.exec_context.thread_0.statExecutedInstType::FloatCvt            0                       # Class of executed instruction. (Count)
system.atomicCpu2.exec_context.thread_0.statExecutedInstType::FloatMult            0                       # Class of executed instruction. (Count)
system.atomicCpu2.exec_context.thread_0.statExecutedInstType::FloatMultAcc            0                       # Class of executed instruction. (Count)
system.atomicCpu2.exec_context.thread_0.statExecutedInstType::FloatDiv            0                       # Class of executed instruction. (Count)
system.atomicCpu2.exec_context.thread_0.statExecutedInstType::FloatMisc            0                       # Class of executed instruction. (Count)
system.atomicCpu2.exec_context.thread_0.statExecutedInstType::FloatSqrt            0                       # Class of executed instruction. (Count)
system.atomicCpu2.exec_context.thread_0.statExecutedInstType::SimdAdd            0                       # Class of executed instruction. (Count)
system.atomicCpu2.exec_context.thread_0.statExecutedInstType::SimdAddAcc            0                       # Class of executed instruction. (Count)
system.atomicCpu2.exec_context.thread_0.statExecutedInstType::SimdAlu            0                       # Class of executed instruction. (Count)
system.atomicCpu2.exec_context.thread_0.statExecutedInstType::SimdCmp            0                       # Class of executed instruction. (Count)
system.atomicCpu2.exec_context.thread_0.statExecutedInstType::SimdCvt            0                       # Class of executed instruction. (Count)
system.atomicCpu2.exec_context.thread_0.statExecutedInstType::SimdMisc            0                       # Class of executed instruction. (Count)
system.atomicCpu2.exec_context.thread_0.statExecutedInstType::SimdMult            0                       # Class of executed instruction. (Count)
system.atomicCpu2.exec_context.thread_0.statExecutedInstType::SimdMultAcc            0                       # Class of executed instruction. (Count)
system.atomicCpu2.exec_context.thread_0.statExecutedInstType::SimdShift            0                       # Class of executed instruction. (Count)
system.atomicCpu2.exec_context.thread_0.statExecutedInstType::SimdShiftAcc            0                       # Class of executed instruction. (Count)
system.atomicCpu2.exec_context.thread_0.statExecutedInstType::SimdDiv            0                       # Class of executed instruction. (Count)
system.atomicCpu2.exec_context.thread_0.statExecutedInstType::SimdSqrt            0                       # Class of executed instruction. (Count)
system.atomicCpu2.exec_context.thread_0.statExecutedInstType::SimdFloatAdd            0                       # Class of executed instruction. (Count)
system.atomicCpu2.exec_context.thread_0.statExecutedInstType::SimdFloatAlu            0                       # Class of executed instruction. (Count)
system.atomicCpu2.exec_context.thread_0.statExecutedInstType::SimdFloatCmp            0                       # Class of executed instruction. (Count)
system.atomicCpu2.exec_context.thread_0.statExecutedInstType::SimdFloatCvt            0                       # Class of executed instruction. (Count)
system.atomicCpu2.exec_context.thread_0.statExecutedInstType::SimdFloatDiv            0                       # Class of executed instruction. (Count)
system.atomicCpu2.exec_context.thread_0.statExecutedInstType::SimdFloatMisc            0                       # Class of executed instruction. (Count)
system.atomicCpu2.exec_context.thread_0.statExecutedInstType::SimdFloatMult            0                       # Class of executed instruction. (Count)
system.atomicCpu2.exec_context.thread_0.statExecutedInstType::SimdFloatMultAcc            0                       # Class of executed instruction. (Count)
system.atomicCpu2.exec_context.thread_0.statExecutedInstType::SimdFloatSqrt            0                       # Class of executed instruction. (Count)
system.atomicCpu2.exec_context.thread_0.statExecutedInstType::SimdReduceAdd            0                       # Class of executed instruction. (Count)
system.atomicCpu2.exec_context.thread_0.statExecutedInstType::SimdReduceAlu            0                       # Class of executed instruction. (Count)
system.atomicCpu2.exec_context.thread_0.statExecutedInstType::SimdReduceCmp            0                       # Class of executed instruction. (Count)
system.atomicCpu2.exec_context.thread_0.statExecutedInstType::SimdFloatReduceAdd            0                       # Class of executed instruction. (Count)
system.atomicCpu2.exec_context.thread_0.statExecutedInstType::SimdFloatReduceCmp            0                       # Class of executed instruction. (Count)
system.atomicCpu2.exec_context.thread_0.statExecutedInstType::SimdAes            0                       # Class of executed instruction. (Count)
system.atomicCpu2.exec_context.thread_0.statExecutedInstType::SimdAesMix            0                       # Class of executed instruction. (Count)
system.atomicCpu2.exec_context.thread_0.statExecutedInstType::SimdSha1Hash            0                       # Class of executed instruction. (Count)
system.atomicCpu2.exec_context.thread_0.statExecutedInstType::SimdSha1Hash2            0                       # Class of executed instruction. (Count)
system.atomicCpu2.exec_context.thread_0.statExecutedInstType::SimdSha256Hash            0                       # Class of executed instruction. (Count)
system.atomicCpu2.exec_context.thread_0.statExecutedInstType::SimdSha256Hash2            0                       # Class of executed instruction. (Count)
system.atomicCpu2.exec_context.thread_0.statExecutedInstType::SimdShaSigma2            0                       # Class of executed instruction. (Count)
system.atomicCpu2.exec_context.thread_0.statExecutedInstType::SimdShaSigma3            0                       # Class of executed instruction. (Count)
system.atomicCpu2.exec_context.thread_0.statExecutedInstType::SimdPredAlu            0                       # Class of executed instruction. (Count)
system.atomicCpu2.exec_context.thread_0.statExecutedInstType::MemRead            0                       # Class of executed instruction. (Count)
system.atomicCpu2.exec_context.thread_0.statExecutedInstType::MemWrite            0                       # Class of executed instruction. (Count)
system.atomicCpu2.exec_context.thread_0.statExecutedInstType::FloatMemRead            0                       # Class of executed instruction. (Count)
system.atomicCpu2.exec_context.thread_0.statExecutedInstType::FloatMemWrite            0                       # Class of executed instruction. (Count)
system.atomicCpu2.exec_context.thread_0.statExecutedInstType::IprAccess            0                       # Class of executed instruction. (Count)
system.atomicCpu2.exec_context.thread_0.statExecutedInstType::InstPrefetch            0                       # Class of executed instruction. (Count)
system.atomicCpu2.exec_context.thread_0.statExecutedInstType::total            0                       # Class of executed instruction. (Count)
system.atomicCpu2.mmu.dtb.rdAccesses                0                       # TLB accesses on read requests (Count)
system.atomicCpu2.mmu.dtb.wrAccesses                0                       # TLB accesses on write requests (Count)
system.atomicCpu2.mmu.dtb.rdMisses                  0                       # TLB misses on read requests (Count)
system.atomicCpu2.mmu.dtb.wrMisses                  0                       # TLB misses on write requests (Count)
system.atomicCpu2.mmu.dtb.walker.power_state.pwrStateResidencyTicks::UNDEFINED 19497202267750                       # Cumulative time (in ticks) in various power states (Tick)
system.atomicCpu2.mmu.itb.rdAccesses                0                       # TLB accesses on read requests (Count)
system.atomicCpu2.mmu.itb.wrAccesses                0                       # TLB accesses on write requests (Count)
system.atomicCpu2.mmu.itb.rdMisses                  0                       # TLB misses on read requests (Count)
system.atomicCpu2.mmu.itb.wrMisses                  0                       # TLB misses on write requests (Count)
system.atomicCpu2.mmu.itb.walker.power_state.pwrStateResidencyTicks::UNDEFINED 19497202267750                       # Cumulative time (in ticks) in various power states (Tick)
system.atomicCpu2.power_state.pwrStateResidencyTicks::OFF 19497202267750                       # Cumulative time (in ticks) in various power states (Tick)
system.atomicCpu2.thread_0.numInsts                 0                       # Number of Instructions committed (Count)
system.atomicCpu2.thread_0.numOps                   0                       # Number of Ops committed (Count)
system.atomicCpu2.thread_0.numMemRefs               0                       # Number of Memory References (Count)
system.atomicCpu3.numCycles                         0                       # Number of cpu cycles simulated (Cycle)
system.atomicCpu3.numWorkItemsStarted               0                       # Number of work items this cpu started (Count)
system.atomicCpu3.numWorkItemsCompleted             0                       # Number of work items this cpu completed (Count)
system.atomicCpu3.exec_context.thread_0.numInsts            0                       # Number of instructions committed (Count)
system.atomicCpu3.exec_context.thread_0.numOps            0                       # Number of ops (including micro ops) committed (Count)
system.atomicCpu3.exec_context.thread_0.numIntAluAccesses            0                       # Number of integer alu accesses (Count)
system.atomicCpu3.exec_context.thread_0.numFpAluAccesses            0                       # Number of float alu accesses (Count)
system.atomicCpu3.exec_context.thread_0.numVecAluAccesses            0                       # Number of vector alu accesses (Count)
system.atomicCpu3.exec_context.thread_0.numCallsReturns            0                       # Number of times a function call or return occured (Count)
system.atomicCpu3.exec_context.thread_0.numCondCtrlInsts            0                       # Number of instructions that are conditional controls (Count)
system.atomicCpu3.exec_context.thread_0.numIntInsts            0                       # Number of integer instructions (Count)
system.atomicCpu3.exec_context.thread_0.numFpInsts            0                       # Number of float instructions (Count)
system.atomicCpu3.exec_context.thread_0.numVecInsts            0                       # Number of vector instructions (Count)
system.atomicCpu3.exec_context.thread_0.numIntRegReads            0                       # Number of times the integer registers were read (Count)
system.atomicCpu3.exec_context.thread_0.numIntRegWrites            0                       # Number of times the integer registers were written (Count)
system.atomicCpu3.exec_context.thread_0.numFpRegReads            0                       # Number of times the floating registers were read (Count)
system.atomicCpu3.exec_context.thread_0.numFpRegWrites            0                       # Number of times the floating registers were written (Count)
system.atomicCpu3.exec_context.thread_0.numVecRegReads            0                       # Number of times the vector registers were read (Count)
system.atomicCpu3.exec_context.thread_0.numVecRegWrites            0                       # Number of times the vector registers were written (Count)
system.atomicCpu3.exec_context.thread_0.numVecPredRegReads            0                       # Number of times the predicate registers were read (Count)
system.atomicCpu3.exec_context.thread_0.numVecPredRegWrites            0                       # Number of times the predicate registers were written (Count)
system.atomicCpu3.exec_context.thread_0.numMiscRegReads            0                       # Number of times the Misc registers were read (Count)
system.atomicCpu3.exec_context.thread_0.numMiscRegWrites            0                       # Number of times the Misc registers were written (Count)
system.atomicCpu3.exec_context.thread_0.numMemRefs            0                       # Number of memory refs (Count)
system.atomicCpu3.exec_context.thread_0.numLoadInsts            0                       # Number of load instructions (Count)
system.atomicCpu3.exec_context.thread_0.numStoreInsts            0                       # Number of store instructions (Count)
system.atomicCpu3.exec_context.thread_0.numIdleCycles            0                       # Number of idle cycles (Cycle)
system.atomicCpu3.exec_context.thread_0.numBusyCycles            0                       # Number of busy cycles (Cycle)
system.atomicCpu3.exec_context.thread_0.notIdleFraction            0                       # Percentage of non-idle cycles (Ratio)
system.atomicCpu3.exec_context.thread_0.idleFraction            1                       # Percentage of idle cycles (Ratio)
system.atomicCpu3.exec_context.thread_0.statExecutedInstType::No_OpClass            0                       # Class of executed instruction. (Count)
system.atomicCpu3.exec_context.thread_0.statExecutedInstType::IntAlu            0                       # Class of executed instruction. (Count)
system.atomicCpu3.exec_context.thread_0.statExecutedInstType::IntMult            0                       # Class of executed instruction. (Count)
system.atomicCpu3.exec_context.thread_0.statExecutedInstType::IntDiv            0                       # Class of executed instruction. (Count)
system.atomicCpu3.exec_context.thread_0.statExecutedInstType::FloatAdd            0                       # Class of executed instruction. (Count)
system.atomicCpu3.exec_context.thread_0.statExecutedInstType::FloatCmp            0                       # Class of executed instruction. (Count)
system.atomicCpu3.exec_context.thread_0.statExecutedInstType::FloatCvt            0                       # Class of executed instruction. (Count)
system.atomicCpu3.exec_context.thread_0.statExecutedInstType::FloatMult            0                       # Class of executed instruction. (Count)
system.atomicCpu3.exec_context.thread_0.statExecutedInstType::FloatMultAcc            0                       # Class of executed instruction. (Count)
system.atomicCpu3.exec_context.thread_0.statExecutedInstType::FloatDiv            0                       # Class of executed instruction. (Count)
system.atomicCpu3.exec_context.thread_0.statExecutedInstType::FloatMisc            0                       # Class of executed instruction. (Count)
system.atomicCpu3.exec_context.thread_0.statExecutedInstType::FloatSqrt            0                       # Class of executed instruction. (Count)
system.atomicCpu3.exec_context.thread_0.statExecutedInstType::SimdAdd            0                       # Class of executed instruction. (Count)
system.atomicCpu3.exec_context.thread_0.statExecutedInstType::SimdAddAcc            0                       # Class of executed instruction. (Count)
system.atomicCpu3.exec_context.thread_0.statExecutedInstType::SimdAlu            0                       # Class of executed instruction. (Count)
system.atomicCpu3.exec_context.thread_0.statExecutedInstType::SimdCmp            0                       # Class of executed instruction. (Count)
system.atomicCpu3.exec_context.thread_0.statExecutedInstType::SimdCvt            0                       # Class of executed instruction. (Count)
system.atomicCpu3.exec_context.thread_0.statExecutedInstType::SimdMisc            0                       # Class of executed instruction. (Count)
system.atomicCpu3.exec_context.thread_0.statExecutedInstType::SimdMult            0                       # Class of executed instruction. (Count)
system.atomicCpu3.exec_context.thread_0.statExecutedInstType::SimdMultAcc            0                       # Class of executed instruction. (Count)
system.atomicCpu3.exec_context.thread_0.statExecutedInstType::SimdShift            0                       # Class of executed instruction. (Count)
system.atomicCpu3.exec_context.thread_0.statExecutedInstType::SimdShiftAcc            0                       # Class of executed instruction. (Count)
system.atomicCpu3.exec_context.thread_0.statExecutedInstType::SimdDiv            0                       # Class of executed instruction. (Count)
system.atomicCpu3.exec_context.thread_0.statExecutedInstType::SimdSqrt            0                       # Class of executed instruction. (Count)
system.atomicCpu3.exec_context.thread_0.statExecutedInstType::SimdFloatAdd            0                       # Class of executed instruction. (Count)
system.atomicCpu3.exec_context.thread_0.statExecutedInstType::SimdFloatAlu            0                       # Class of executed instruction. (Count)
system.atomicCpu3.exec_context.thread_0.statExecutedInstType::SimdFloatCmp            0                       # Class of executed instruction. (Count)
system.atomicCpu3.exec_context.thread_0.statExecutedInstType::SimdFloatCvt            0                       # Class of executed instruction. (Count)
system.atomicCpu3.exec_context.thread_0.statExecutedInstType::SimdFloatDiv            0                       # Class of executed instruction. (Count)
system.atomicCpu3.exec_context.thread_0.statExecutedInstType::SimdFloatMisc            0                       # Class of executed instruction. (Count)
system.atomicCpu3.exec_context.thread_0.statExecutedInstType::SimdFloatMult            0                       # Class of executed instruction. (Count)
system.atomicCpu3.exec_context.thread_0.statExecutedInstType::SimdFloatMultAcc            0                       # Class of executed instruction. (Count)
system.atomicCpu3.exec_context.thread_0.statExecutedInstType::SimdFloatSqrt            0                       # Class of executed instruction. (Count)
system.atomicCpu3.exec_context.thread_0.statExecutedInstType::SimdReduceAdd            0                       # Class of executed instruction. (Count)
system.atomicCpu3.exec_context.thread_0.statExecutedInstType::SimdReduceAlu            0                       # Class of executed instruction. (Count)
system.atomicCpu3.exec_context.thread_0.statExecutedInstType::SimdReduceCmp            0                       # Class of executed instruction. (Count)
system.atomicCpu3.exec_context.thread_0.statExecutedInstType::SimdFloatReduceAdd            0                       # Class of executed instruction. (Count)
system.atomicCpu3.exec_context.thread_0.statExecutedInstType::SimdFloatReduceCmp            0                       # Class of executed instruction. (Count)
system.atomicCpu3.exec_context.thread_0.statExecutedInstType::SimdAes            0                       # Class of executed instruction. (Count)
system.atomicCpu3.exec_context.thread_0.statExecutedInstType::SimdAesMix            0                       # Class of executed instruction. (Count)
system.atomicCpu3.exec_context.thread_0.statExecutedInstType::SimdSha1Hash            0                       # Class of executed instruction. (Count)
system.atomicCpu3.exec_context.thread_0.statExecutedInstType::SimdSha1Hash2            0                       # Class of executed instruction. (Count)
system.atomicCpu3.exec_context.thread_0.statExecutedInstType::SimdSha256Hash            0                       # Class of executed instruction. (Count)
system.atomicCpu3.exec_context.thread_0.statExecutedInstType::SimdSha256Hash2            0                       # Class of executed instruction. (Count)
system.atomicCpu3.exec_context.thread_0.statExecutedInstType::SimdShaSigma2            0                       # Class of executed instruction. (Count)
system.atomicCpu3.exec_context.thread_0.statExecutedInstType::SimdShaSigma3            0                       # Class of executed instruction. (Count)
system.atomicCpu3.exec_context.thread_0.statExecutedInstType::SimdPredAlu            0                       # Class of executed instruction. (Count)
system.atomicCpu3.exec_context.thread_0.statExecutedInstType::MemRead            0                       # Class of executed instruction. (Count)
system.atomicCpu3.exec_context.thread_0.statExecutedInstType::MemWrite            0                       # Class of executed instruction. (Count)
system.atomicCpu3.exec_context.thread_0.statExecutedInstType::FloatMemRead            0                       # Class of executed instruction. (Count)
system.atomicCpu3.exec_context.thread_0.statExecutedInstType::FloatMemWrite            0                       # Class of executed instruction. (Count)
system.atomicCpu3.exec_context.thread_0.statExecutedInstType::IprAccess            0                       # Class of executed instruction. (Count)
system.atomicCpu3.exec_context.thread_0.statExecutedInstType::InstPrefetch            0                       # Class of executed instruction. (Count)
system.atomicCpu3.exec_context.thread_0.statExecutedInstType::total            0                       # Class of executed instruction. (Count)
system.atomicCpu3.mmu.dtb.rdAccesses                0                       # TLB accesses on read requests (Count)
system.atomicCpu3.mmu.dtb.wrAccesses                0                       # TLB accesses on write requests (Count)
system.atomicCpu3.mmu.dtb.rdMisses                  0                       # TLB misses on read requests (Count)
system.atomicCpu3.mmu.dtb.wrMisses                  0                       # TLB misses on write requests (Count)
system.atomicCpu3.mmu.dtb.walker.power_state.pwrStateResidencyTicks::UNDEFINED 19497202267750                       # Cumulative time (in ticks) in various power states (Tick)
system.atomicCpu3.mmu.itb.rdAccesses                0                       # TLB accesses on read requests (Count)
system.atomicCpu3.mmu.itb.wrAccesses                0                       # TLB accesses on write requests (Count)
system.atomicCpu3.mmu.itb.rdMisses                  0                       # TLB misses on read requests (Count)
system.atomicCpu3.mmu.itb.wrMisses                  0                       # TLB misses on write requests (Count)
system.atomicCpu3.mmu.itb.walker.power_state.pwrStateResidencyTicks::UNDEFINED 19497202267750                       # Cumulative time (in ticks) in various power states (Tick)
system.atomicCpu3.power_state.pwrStateResidencyTicks::OFF 19497202267750                       # Cumulative time (in ticks) in various power states (Tick)
system.atomicCpu3.thread_0.numInsts                 0                       # Number of Instructions committed (Count)
system.atomicCpu3.thread_0.numOps                   0                       # Number of Ops committed (Count)
system.atomicCpu3.thread_0.numMemRefs               0                       # Number of Memory References (Count)
system.atomicCpu4.numCycles                         0                       # Number of cpu cycles simulated (Cycle)
system.atomicCpu4.numWorkItemsStarted               0                       # Number of work items this cpu started (Count)
system.atomicCpu4.numWorkItemsCompleted             0                       # Number of work items this cpu completed (Count)
system.atomicCpu4.exec_context.thread_0.numInsts            0                       # Number of instructions committed (Count)
system.atomicCpu4.exec_context.thread_0.numOps            0                       # Number of ops (including micro ops) committed (Count)
system.atomicCpu4.exec_context.thread_0.numIntAluAccesses            0                       # Number of integer alu accesses (Count)
system.atomicCpu4.exec_context.thread_0.numFpAluAccesses            0                       # Number of float alu accesses (Count)
system.atomicCpu4.exec_context.thread_0.numVecAluAccesses            0                       # Number of vector alu accesses (Count)
system.atomicCpu4.exec_context.thread_0.numCallsReturns            0                       # Number of times a function call or return occured (Count)
system.atomicCpu4.exec_context.thread_0.numCondCtrlInsts            0                       # Number of instructions that are conditional controls (Count)
system.atomicCpu4.exec_context.thread_0.numIntInsts            0                       # Number of integer instructions (Count)
system.atomicCpu4.exec_context.thread_0.numFpInsts            0                       # Number of float instructions (Count)
system.atomicCpu4.exec_context.thread_0.numVecInsts            0                       # Number of vector instructions (Count)
system.atomicCpu4.exec_context.thread_0.numIntRegReads            0                       # Number of times the integer registers were read (Count)
system.atomicCpu4.exec_context.thread_0.numIntRegWrites            0                       # Number of times the integer registers were written (Count)
system.atomicCpu4.exec_context.thread_0.numFpRegReads            0                       # Number of times the floating registers were read (Count)
system.atomicCpu4.exec_context.thread_0.numFpRegWrites            0                       # Number of times the floating registers were written (Count)
system.atomicCpu4.exec_context.thread_0.numVecRegReads            0                       # Number of times the vector registers were read (Count)
system.atomicCpu4.exec_context.thread_0.numVecRegWrites            0                       # Number of times the vector registers were written (Count)
system.atomicCpu4.exec_context.thread_0.numVecPredRegReads            0                       # Number of times the predicate registers were read (Count)
system.atomicCpu4.exec_context.thread_0.numVecPredRegWrites            0                       # Number of times the predicate registers were written (Count)
system.atomicCpu4.exec_context.thread_0.numMiscRegReads            0                       # Number of times the Misc registers were read (Count)
system.atomicCpu4.exec_context.thread_0.numMiscRegWrites            0                       # Number of times the Misc registers were written (Count)
system.atomicCpu4.exec_context.thread_0.numMemRefs            0                       # Number of memory refs (Count)
system.atomicCpu4.exec_context.thread_0.numLoadInsts            0                       # Number of load instructions (Count)
system.atomicCpu4.exec_context.thread_0.numStoreInsts            0                       # Number of store instructions (Count)
system.atomicCpu4.exec_context.thread_0.numIdleCycles            0                       # Number of idle cycles (Cycle)
system.atomicCpu4.exec_context.thread_0.numBusyCycles            0                       # Number of busy cycles (Cycle)
system.atomicCpu4.exec_context.thread_0.notIdleFraction            0                       # Percentage of non-idle cycles (Ratio)
system.atomicCpu4.exec_context.thread_0.idleFraction            1                       # Percentage of idle cycles (Ratio)
system.atomicCpu4.exec_context.thread_0.statExecutedInstType::No_OpClass            0                       # Class of executed instruction. (Count)
system.atomicCpu4.exec_context.thread_0.statExecutedInstType::IntAlu            0                       # Class of executed instruction. (Count)
system.atomicCpu4.exec_context.thread_0.statExecutedInstType::IntMult            0                       # Class of executed instruction. (Count)
system.atomicCpu4.exec_context.thread_0.statExecutedInstType::IntDiv            0                       # Class of executed instruction. (Count)
system.atomicCpu4.exec_context.thread_0.statExecutedInstType::FloatAdd            0                       # Class of executed instruction. (Count)
system.atomicCpu4.exec_context.thread_0.statExecutedInstType::FloatCmp            0                       # Class of executed instruction. (Count)
system.atomicCpu4.exec_context.thread_0.statExecutedInstType::FloatCvt            0                       # Class of executed instruction. (Count)
system.atomicCpu4.exec_context.thread_0.statExecutedInstType::FloatMult            0                       # Class of executed instruction. (Count)
system.atomicCpu4.exec_context.thread_0.statExecutedInstType::FloatMultAcc            0                       # Class of executed instruction. (Count)
system.atomicCpu4.exec_context.thread_0.statExecutedInstType::FloatDiv            0                       # Class of executed instruction. (Count)
system.atomicCpu4.exec_context.thread_0.statExecutedInstType::FloatMisc            0                       # Class of executed instruction. (Count)
system.atomicCpu4.exec_context.thread_0.statExecutedInstType::FloatSqrt            0                       # Class of executed instruction. (Count)
system.atomicCpu4.exec_context.thread_0.statExecutedInstType::SimdAdd            0                       # Class of executed instruction. (Count)
system.atomicCpu4.exec_context.thread_0.statExecutedInstType::SimdAddAcc            0                       # Class of executed instruction. (Count)
system.atomicCpu4.exec_context.thread_0.statExecutedInstType::SimdAlu            0                       # Class of executed instruction. (Count)
system.atomicCpu4.exec_context.thread_0.statExecutedInstType::SimdCmp            0                       # Class of executed instruction. (Count)
system.atomicCpu4.exec_context.thread_0.statExecutedInstType::SimdCvt            0                       # Class of executed instruction. (Count)
system.atomicCpu4.exec_context.thread_0.statExecutedInstType::SimdMisc            0                       # Class of executed instruction. (Count)
system.atomicCpu4.exec_context.thread_0.statExecutedInstType::SimdMult            0                       # Class of executed instruction. (Count)
system.atomicCpu4.exec_context.thread_0.statExecutedInstType::SimdMultAcc            0                       # Class of executed instruction. (Count)
system.atomicCpu4.exec_context.thread_0.statExecutedInstType::SimdShift            0                       # Class of executed instruction. (Count)
system.atomicCpu4.exec_context.thread_0.statExecutedInstType::SimdShiftAcc            0                       # Class of executed instruction. (Count)
system.atomicCpu4.exec_context.thread_0.statExecutedInstType::SimdDiv            0                       # Class of executed instruction. (Count)
system.atomicCpu4.exec_context.thread_0.statExecutedInstType::SimdSqrt            0                       # Class of executed instruction. (Count)
system.atomicCpu4.exec_context.thread_0.statExecutedInstType::SimdFloatAdd            0                       # Class of executed instruction. (Count)
system.atomicCpu4.exec_context.thread_0.statExecutedInstType::SimdFloatAlu            0                       # Class of executed instruction. (Count)
system.atomicCpu4.exec_context.thread_0.statExecutedInstType::SimdFloatCmp            0                       # Class of executed instruction. (Count)
system.atomicCpu4.exec_context.thread_0.statExecutedInstType::SimdFloatCvt            0                       # Class of executed instruction. (Count)
system.atomicCpu4.exec_context.thread_0.statExecutedInstType::SimdFloatDiv            0                       # Class of executed instruction. (Count)
system.atomicCpu4.exec_context.thread_0.statExecutedInstType::SimdFloatMisc            0                       # Class of executed instruction. (Count)
system.atomicCpu4.exec_context.thread_0.statExecutedInstType::SimdFloatMult            0                       # Class of executed instruction. (Count)
system.atomicCpu4.exec_context.thread_0.statExecutedInstType::SimdFloatMultAcc            0                       # Class of executed instruction. (Count)
system.atomicCpu4.exec_context.thread_0.statExecutedInstType::SimdFloatSqrt            0                       # Class of executed instruction. (Count)
system.atomicCpu4.exec_context.thread_0.statExecutedInstType::SimdReduceAdd            0                       # Class of executed instruction. (Count)
system.atomicCpu4.exec_context.thread_0.statExecutedInstType::SimdReduceAlu            0                       # Class of executed instruction. (Count)
system.atomicCpu4.exec_context.thread_0.statExecutedInstType::SimdReduceCmp            0                       # Class of executed instruction. (Count)
system.atomicCpu4.exec_context.thread_0.statExecutedInstType::SimdFloatReduceAdd            0                       # Class of executed instruction. (Count)
system.atomicCpu4.exec_context.thread_0.statExecutedInstType::SimdFloatReduceCmp            0                       # Class of executed instruction. (Count)
system.atomicCpu4.exec_context.thread_0.statExecutedInstType::SimdAes            0                       # Class of executed instruction. (Count)
system.atomicCpu4.exec_context.thread_0.statExecutedInstType::SimdAesMix            0                       # Class of executed instruction. (Count)
system.atomicCpu4.exec_context.thread_0.statExecutedInstType::SimdSha1Hash            0                       # Class of executed instruction. (Count)
system.atomicCpu4.exec_context.thread_0.statExecutedInstType::SimdSha1Hash2            0                       # Class of executed instruction. (Count)
system.atomicCpu4.exec_context.thread_0.statExecutedInstType::SimdSha256Hash            0                       # Class of executed instruction. (Count)
system.atomicCpu4.exec_context.thread_0.statExecutedInstType::SimdSha256Hash2            0                       # Class of executed instruction. (Count)
system.atomicCpu4.exec_context.thread_0.statExecutedInstType::SimdShaSigma2            0                       # Class of executed instruction. (Count)
system.atomicCpu4.exec_context.thread_0.statExecutedInstType::SimdShaSigma3            0                       # Class of executed instruction. (Count)
system.atomicCpu4.exec_context.thread_0.statExecutedInstType::SimdPredAlu            0                       # Class of executed instruction. (Count)
system.atomicCpu4.exec_context.thread_0.statExecutedInstType::MemRead            0                       # Class of executed instruction. (Count)
system.atomicCpu4.exec_context.thread_0.statExecutedInstType::MemWrite            0                       # Class of executed instruction. (Count)
system.atomicCpu4.exec_context.thread_0.statExecutedInstType::FloatMemRead            0                       # Class of executed instruction. (Count)
system.atomicCpu4.exec_context.thread_0.statExecutedInstType::FloatMemWrite            0                       # Class of executed instruction. (Count)
system.atomicCpu4.exec_context.thread_0.statExecutedInstType::IprAccess            0                       # Class of executed instruction. (Count)
system.atomicCpu4.exec_context.thread_0.statExecutedInstType::InstPrefetch            0                       # Class of executed instruction. (Count)
system.atomicCpu4.exec_context.thread_0.statExecutedInstType::total            0                       # Class of executed instruction. (Count)
system.atomicCpu4.mmu.dtb.rdAccesses                0                       # TLB accesses on read requests (Count)
system.atomicCpu4.mmu.dtb.wrAccesses                0                       # TLB accesses on write requests (Count)
system.atomicCpu4.mmu.dtb.rdMisses                  0                       # TLB misses on read requests (Count)
system.atomicCpu4.mmu.dtb.wrMisses                  0                       # TLB misses on write requests (Count)
system.atomicCpu4.mmu.dtb.walker.power_state.pwrStateResidencyTicks::UNDEFINED 19497202267750                       # Cumulative time (in ticks) in various power states (Tick)
system.atomicCpu4.mmu.itb.rdAccesses                0                       # TLB accesses on read requests (Count)
system.atomicCpu4.mmu.itb.wrAccesses                0                       # TLB accesses on write requests (Count)
system.atomicCpu4.mmu.itb.rdMisses                  0                       # TLB misses on read requests (Count)
system.atomicCpu4.mmu.itb.wrMisses                  0                       # TLB misses on write requests (Count)
system.atomicCpu4.mmu.itb.walker.power_state.pwrStateResidencyTicks::UNDEFINED 19497202267750                       # Cumulative time (in ticks) in various power states (Tick)
system.atomicCpu4.power_state.pwrStateResidencyTicks::OFF 19497202267750                       # Cumulative time (in ticks) in various power states (Tick)
system.atomicCpu4.thread_0.numInsts                 0                       # Number of Instructions committed (Count)
system.atomicCpu4.thread_0.numOps                   0                       # Number of Ops committed (Count)
system.atomicCpu4.thread_0.numMemRefs               0                       # Number of Memory References (Count)
system.atomicCpu5.numCycles                         0                       # Number of cpu cycles simulated (Cycle)
system.atomicCpu5.numWorkItemsStarted               0                       # Number of work items this cpu started (Count)
system.atomicCpu5.numWorkItemsCompleted             0                       # Number of work items this cpu completed (Count)
system.atomicCpu5.exec_context.thread_0.numInsts            0                       # Number of instructions committed (Count)
system.atomicCpu5.exec_context.thread_0.numOps            0                       # Number of ops (including micro ops) committed (Count)
system.atomicCpu5.exec_context.thread_0.numIntAluAccesses            0                       # Number of integer alu accesses (Count)
system.atomicCpu5.exec_context.thread_0.numFpAluAccesses            0                       # Number of float alu accesses (Count)
system.atomicCpu5.exec_context.thread_0.numVecAluAccesses            0                       # Number of vector alu accesses (Count)
system.atomicCpu5.exec_context.thread_0.numCallsReturns            0                       # Number of times a function call or return occured (Count)
system.atomicCpu5.exec_context.thread_0.numCondCtrlInsts            0                       # Number of instructions that are conditional controls (Count)
system.atomicCpu5.exec_context.thread_0.numIntInsts            0                       # Number of integer instructions (Count)
system.atomicCpu5.exec_context.thread_0.numFpInsts            0                       # Number of float instructions (Count)
system.atomicCpu5.exec_context.thread_0.numVecInsts            0                       # Number of vector instructions (Count)
system.atomicCpu5.exec_context.thread_0.numIntRegReads            0                       # Number of times the integer registers were read (Count)
system.atomicCpu5.exec_context.thread_0.numIntRegWrites            0                       # Number of times the integer registers were written (Count)
system.atomicCpu5.exec_context.thread_0.numFpRegReads            0                       # Number of times the floating registers were read (Count)
system.atomicCpu5.exec_context.thread_0.numFpRegWrites            0                       # Number of times the floating registers were written (Count)
system.atomicCpu5.exec_context.thread_0.numVecRegReads            0                       # Number of times the vector registers were read (Count)
system.atomicCpu5.exec_context.thread_0.numVecRegWrites            0                       # Number of times the vector registers were written (Count)
system.atomicCpu5.exec_context.thread_0.numVecPredRegReads            0                       # Number of times the predicate registers were read (Count)
system.atomicCpu5.exec_context.thread_0.numVecPredRegWrites            0                       # Number of times the predicate registers were written (Count)
system.atomicCpu5.exec_context.thread_0.numMiscRegReads            0                       # Number of times the Misc registers were read (Count)
system.atomicCpu5.exec_context.thread_0.numMiscRegWrites            0                       # Number of times the Misc registers were written (Count)
system.atomicCpu5.exec_context.thread_0.numMemRefs            0                       # Number of memory refs (Count)
system.atomicCpu5.exec_context.thread_0.numLoadInsts            0                       # Number of load instructions (Count)
system.atomicCpu5.exec_context.thread_0.numStoreInsts            0                       # Number of store instructions (Count)
system.atomicCpu5.exec_context.thread_0.numIdleCycles            0                       # Number of idle cycles (Cycle)
system.atomicCpu5.exec_context.thread_0.numBusyCycles            0                       # Number of busy cycles (Cycle)
system.atomicCpu5.exec_context.thread_0.notIdleFraction            0                       # Percentage of non-idle cycles (Ratio)
system.atomicCpu5.exec_context.thread_0.idleFraction            1                       # Percentage of idle cycles (Ratio)
system.atomicCpu5.exec_context.thread_0.statExecutedInstType::No_OpClass            0                       # Class of executed instruction. (Count)
system.atomicCpu5.exec_context.thread_0.statExecutedInstType::IntAlu            0                       # Class of executed instruction. (Count)
system.atomicCpu5.exec_context.thread_0.statExecutedInstType::IntMult            0                       # Class of executed instruction. (Count)
system.atomicCpu5.exec_context.thread_0.statExecutedInstType::IntDiv            0                       # Class of executed instruction. (Count)
system.atomicCpu5.exec_context.thread_0.statExecutedInstType::FloatAdd            0                       # Class of executed instruction. (Count)
system.atomicCpu5.exec_context.thread_0.statExecutedInstType::FloatCmp            0                       # Class of executed instruction. (Count)
system.atomicCpu5.exec_context.thread_0.statExecutedInstType::FloatCvt            0                       # Class of executed instruction. (Count)
system.atomicCpu5.exec_context.thread_0.statExecutedInstType::FloatMult            0                       # Class of executed instruction. (Count)
system.atomicCpu5.exec_context.thread_0.statExecutedInstType::FloatMultAcc            0                       # Class of executed instruction. (Count)
system.atomicCpu5.exec_context.thread_0.statExecutedInstType::FloatDiv            0                       # Class of executed instruction. (Count)
system.atomicCpu5.exec_context.thread_0.statExecutedInstType::FloatMisc            0                       # Class of executed instruction. (Count)
system.atomicCpu5.exec_context.thread_0.statExecutedInstType::FloatSqrt            0                       # Class of executed instruction. (Count)
system.atomicCpu5.exec_context.thread_0.statExecutedInstType::SimdAdd            0                       # Class of executed instruction. (Count)
system.atomicCpu5.exec_context.thread_0.statExecutedInstType::SimdAddAcc            0                       # Class of executed instruction. (Count)
system.atomicCpu5.exec_context.thread_0.statExecutedInstType::SimdAlu            0                       # Class of executed instruction. (Count)
system.atomicCpu5.exec_context.thread_0.statExecutedInstType::SimdCmp            0                       # Class of executed instruction. (Count)
system.atomicCpu5.exec_context.thread_0.statExecutedInstType::SimdCvt            0                       # Class of executed instruction. (Count)
system.atomicCpu5.exec_context.thread_0.statExecutedInstType::SimdMisc            0                       # Class of executed instruction. (Count)
system.atomicCpu5.exec_context.thread_0.statExecutedInstType::SimdMult            0                       # Class of executed instruction. (Count)
system.atomicCpu5.exec_context.thread_0.statExecutedInstType::SimdMultAcc            0                       # Class of executed instruction. (Count)
system.atomicCpu5.exec_context.thread_0.statExecutedInstType::SimdShift            0                       # Class of executed instruction. (Count)
system.atomicCpu5.exec_context.thread_0.statExecutedInstType::SimdShiftAcc            0                       # Class of executed instruction. (Count)
system.atomicCpu5.exec_context.thread_0.statExecutedInstType::SimdDiv            0                       # Class of executed instruction. (Count)
system.atomicCpu5.exec_context.thread_0.statExecutedInstType::SimdSqrt            0                       # Class of executed instruction. (Count)
system.atomicCpu5.exec_context.thread_0.statExecutedInstType::SimdFloatAdd            0                       # Class of executed instruction. (Count)
system.atomicCpu5.exec_context.thread_0.statExecutedInstType::SimdFloatAlu            0                       # Class of executed instruction. (Count)
system.atomicCpu5.exec_context.thread_0.statExecutedInstType::SimdFloatCmp            0                       # Class of executed instruction. (Count)
system.atomicCpu5.exec_context.thread_0.statExecutedInstType::SimdFloatCvt            0                       # Class of executed instruction. (Count)
system.atomicCpu5.exec_context.thread_0.statExecutedInstType::SimdFloatDiv            0                       # Class of executed instruction. (Count)
system.atomicCpu5.exec_context.thread_0.statExecutedInstType::SimdFloatMisc            0                       # Class of executed instruction. (Count)
system.atomicCpu5.exec_context.thread_0.statExecutedInstType::SimdFloatMult            0                       # Class of executed instruction. (Count)
[...]
system.timingCpu6.exec_context.thread_0.statExecutedInstType::MemWrite       391104      6.06%    100.00% # Class of executed instruction. (Count)
system.timingCpu6.exec_context.thread_0.statExecutedInstType::FloatMemRead            0      0.00%    100.00% # Class of executed instruction. (Count)
system.timingCpu6.exec_context.thread_0.statExecutedInstType::FloatMemWrite           32      0.00%    100.00% # Class of executed instruction. (Count)
system.timingCpu6.exec_context.thread_0.statExecutedInstType::IprAccess            0      0.00%    100.00% # Class of executed instruction. (Count)
system.timingCpu6.exec_context.thread_0.statExecutedInstType::InstPrefetch            0      0.00%    100.00% # Class of executed instruction. (Count)
system.timingCpu6.exec_context.thread_0.statExecutedInstType::total      6453996                       # Class of executed instruction. (Count)
system.timingCpu6.mmu.dtb.rdAccesses           849458                       # TLB accesses on read requests (Count)
system.timingCpu6.mmu.dtb.wrAccesses           391144                       # TLB accesses on write requests (Count)
system.timingCpu6.mmu.dtb.rdMisses                 81                       # TLB misses on read requests (Count)
system.timingCpu6.mmu.dtb.wrMisses                  9                       # TLB misses on write requests (Count)
system.timingCpu6.mmu.dtb.walker.power_state.pwrStateResidencyTicks::UNDEFINED 1225289701251                       # Cumulative time (in ticks) in various power states (Tick)
system.timingCpu6.mmu.itb.rdAccesses                0                       # TLB accesses on read requests (Count)
system.timingCpu6.mmu.itb.wrAccesses          3841952                       # TLB accesses on write requests (Count)
system.timingCpu6.mmu.itb.rdMisses                  0                       # TLB misses on read requests (Count)
system.timingCpu6.mmu.itb.wrMisses                  0                       # TLB misses on write requests (Count)
system.timingCpu6.mmu.itb.walker.power_state.pwrStateResidencyTicks::UNDEFINED 1225289701251                       # Cumulative time (in ticks) in various power states (Tick)
system.timingCpu6.power_state.numTransitions         2453                       # Number of power state transitions (Count)
system.timingCpu6.power_state.ticksClkGated::samples         1227                       # Distribution of time spent in the clock gated state (Tick)
system.timingCpu6.power_state.ticksClkGated::mean 995570835.167889                       # Distribution of time spent in the clock gated state (Tick)
system.timingCpu6.power_state.ticksClkGated::stdev 35646551.659299                       # Distribution of time spent in the clock gated state (Tick)
system.timingCpu6.power_state.ticksClkGated::1000-5e+10         1227    100.00%    100.00% # Distribution of time spent in the clock gated state (Tick)
system.timingCpu6.power_state.ticksClkGated::min_value    120554500                       # Distribution of time spent in the clock gated state (Tick)
system.timingCpu6.power_state.ticksClkGated::max_value    998668750                       # Distribution of time spent in the clock gated state (Tick)
system.timingCpu6.power_state.ticksClkGated::total         1227                       # Distribution of time spent in the clock gated state (Tick)
system.timingCpu6.power_state.pwrStateResidencyTicks::ON   3724286500                       # Cumulative time (in ticks) in various power states (Tick)
system.timingCpu6.power_state.pwrStateResidencyTicks::CLK_GATED 1221565414751                       # Cumulative time (in ticks) in various power states (Tick)
system.timingCpu6.thread_0.numInsts                 0                       # Number of Instructions committed (Count)
system.timingCpu6.thread_0.numOps                   0                       # Number of Ops committed (Count)
system.timingCpu6.thread_0.numMemRefs               0                       # Number of Memory References (Count)
system.timingCpu7.numCycles                4901158795                       # Number of cpu cycles simulated (Cycle)
system.timingCpu7.numWorkItemsStarted               0                       # Number of work items this cpu started (Count)
system.timingCpu7.numWorkItemsCompleted             0                       # Number of work items this cpu completed (Count)
system.timingCpu7.exec_context.thread_0.numInsts      3242871                       # Number of instructions committed (Count)
system.timingCpu7.exec_context.thread_0.numOps      6986361                       # Number of ops (including micro ops) committed (Count)
system.timingCpu7.exec_context.thread_0.numIntAluAccesses      6681616                       # Number of integer alu accesses (Count)
system.timingCpu7.exec_context.thread_0.numFpAluAccesses         1417                       # Number of float alu accesses (Count)
system.timingCpu7.exec_context.thread_0.numVecAluAccesses            0                       # Number of vector alu accesses (Count)
system.timingCpu7.exec_context.thread_0.numCallsReturns       191780                       # Number of times a function call or return occured (Count)
system.timingCpu7.exec_context.thread_0.numCondCtrlInsts       605954                       # Number of instructions that are conditional controls (Count)
system.timingCpu7.exec_context.thread_0.numIntInsts      6681616                       # Number of integer instructions (Count)
system.timingCpu7.exec_context.thread_0.numFpInsts         1417                       # Number of float instructions (Count)
system.timingCpu7.exec_context.thread_0.numVecInsts            0                       # Number of vector instructions (Count)
system.timingCpu7.exec_context.thread_0.numIntRegReads      7921638                       # Number of times the integer registers were read (Count)
system.timingCpu7.exec_context.thread_0.numIntRegWrites      4875061                       # Number of times the integer registers were written (Count)
system.timingCpu7.exec_context.thread_0.numFpRegReads         2033                       # Number of times the floating registers were read (Count)
system.timingCpu7.exec_context.thread_0.numFpRegWrites          903                       # Number of times the floating registers were written (Count)
system.timingCpu7.exec_context.thread_0.numVecRegReads            0                       # Number of times the vector registers were read (Count)
system.timingCpu7.exec_context.thread_0.numVecRegWrites            0                       # Number of times the vector registers were written (Count)
system.timingCpu7.exec_context.thread_0.numVecPredRegReads            0                       # Number of times the predicate registers were read (Count)
system.timingCpu7.exec_context.thread_0.numVecPredRegWrites            0                       # Number of times the predicate registers were written (Count)
system.timingCpu7.exec_context.thread_0.numCCRegReads      4155019                       # Number of times the CC registers were read (Count)
system.timingCpu7.exec_context.thread_0.numCCRegWrites      2147676                       # Number of times the CC registers were written (Count)
system.timingCpu7.exec_context.thread_0.numMiscRegReads      3156299                       # Number of times the Misc registers were read (Count)
system.timingCpu7.exec_context.thread_0.numMiscRegWrites        41043                       # Number of times the Misc registers were written (Count)
system.timingCpu7.exec_context.thread_0.numMemRefs      1320043                       # Number of memory refs (Count)
system.timingCpu7.exec_context.thread_0.numLoadInsts       900067                       # Number of load instructions (Count)
system.timingCpu7.exec_context.thread_0.numStoreInsts       419976                       # Number of store instructions (Count)
system.timingCpu7.exec_context.thread_0.numIdleCycles 4884352909.026317                       # Number of idle cycles (Cycle)
system.timingCpu7.exec_context.thread_0.numBusyCycles 16805885.973683                       # Number of busy cycles (Cycle)
system.timingCpu7.exec_context.thread_0.notIdleFraction     0.003429                       # Percentage of non-idle cycles (Ratio)
system.timingCpu7.exec_context.thread_0.idleFraction     0.996571                       # Percentage of idle cycles (Ratio)
system.timingCpu7.exec_context.thread_0.numBranches       900273                       # Number of branches fetched (Count)
system.timingCpu7.exec_context.thread_0.statExecutedInstType::No_OpClass         9210      0.13%      0.13% # Class of executed instruction. (Count)
system.timingCpu7.exec_context.thread_0.statExecutedInstType::IntAlu      5632528     80.62%     80.75% # Class of executed instruction. (Count)
system.timingCpu7.exec_context.thread_0.statExecutedInstType::IntMult        12882      0.18%     80.94% # Class of executed instruction. (Count)
system.timingCpu7.exec_context.thread_0.statExecutedInstType::IntDiv        10917      0.16%     81.09% # Class of executed instruction. (Count)
system.timingCpu7.exec_context.thread_0.statExecutedInstType::FloatAdd           27      0.00%     81.09% # Class of executed instruction. (Count)
system.timingCpu7.exec_context.thread_0.statExecutedInstType::FloatCmp            0      0.00%     81.09% # Class of executed instruction. (Count)
system.timingCpu7.exec_context.thread_0.statExecutedInstType::FloatCvt           64      0.00%     81.10% # Class of executed instruction. (Count)
system.timingCpu7.exec_context.thread_0.statExecutedInstType::FloatMult            0      0.00%     81.10% # Class of executed instruction. (Count)
system.timingCpu7.exec_context.thread_0.statExecutedInstType::FloatMultAcc            0      0.00%     81.10% # Class of executed instruction. (Count)
system.timingCpu7.exec_context.thread_0.statExecutedInstType::FloatDiv            0      0.00%     81.10% # Class of executed instruction. (Count)
system.timingCpu7.exec_context.thread_0.statExecutedInstType::FloatMisc            0      0.00%     81.10% # Class of executed instruction. (Count)
system.timingCpu7.exec_context.thread_0.statExecutedInstType::FloatSqrt            0      0.00%     81.10% # Class of executed instruction. (Count)
system.timingCpu7.exec_context.thread_0.statExecutedInstType::SimdAdd           22      0.00%     81.10% # Class of executed instruction. (Count)
system.timingCpu7.exec_context.thread_0.statExecutedInstType::SimdAddAcc            0      0.00%     81.10% # Class of executed instruction. (Count)
system.timingCpu7.exec_context.thread_0.statExecutedInstType::SimdAlu          283      0.00%     81.10% # Class of executed instruction. (Count)
system.timingCpu7.exec_context.thread_0.statExecutedInstType::SimdCmp            0      0.00%     81.10% # Class of executed instruction. (Count)
system.timingCpu7.exec_context.thread_0.statExecutedInstType::SimdCvt          172      0.00%     81.10% # Class of executed instruction. (Count)
system.timingCpu7.exec_context.thread_0.statExecutedInstType::SimdMisc          241      0.00%     81.11% # Class of executed instruction. (Count)
system.timingCpu7.exec_context.thread_0.statExecutedInstType::SimdMult            0      0.00%     81.11% # Class of executed instruction. (Count)
system.timingCpu7.exec_context.thread_0.statExecutedInstType::SimdMultAcc            0      0.00%     81.11% # Class of executed instruction. (Count)
system.timingCpu7.exec_context.thread_0.statExecutedInstType::SimdShift           11      0.00%     81.11% # Class of executed instruction. (Count)
system.timingCpu7.exec_context.thread_0.statExecutedInstType::SimdShiftAcc            0      0.00%     81.11% # Class of executed instruction. (Count)
system.timingCpu7.exec_context.thread_0.statExecutedInstType::SimdDiv            0      0.00%     81.11% # Class of executed instruction. (Count)
system.timingCpu7.exec_context.thread_0.statExecutedInstType::SimdSqrt            0      0.00%     81.11% # Class of executed instruction. (Count)
system.timingCpu7.exec_context.thread_0.statExecutedInstType::SimdFloatAdd            0      0.00%     81.11% # Class of executed instruction. (Count)
system.timingCpu7.exec_context.thread_0.statExecutedInstType::SimdFloatAlu            0      0.00%     81.11% # Class of executed instruction. (Count)
system.timingCpu7.exec_context.thread_0.statExecutedInstType::SimdFloatCmp            0      0.00%     81.11% # Class of executed instruction. (Count)
system.timingCpu7.exec_context.thread_0.statExecutedInstType::SimdFloatCvt            0      0.00%     81.11% # Class of executed instruction. (Count)
system.timingCpu7.exec_context.thread_0.statExecutedInstType::SimdFloatDiv            0      0.00%     81.11% # Class of executed instruction. (Count)
system.timingCpu7.exec_context.thread_0.statExecutedInstType::SimdFloatMisc            0      0.00%     81.11% # Class of executed instruction. (Count)
system.timingCpu7.exec_context.thread_0.statExecutedInstType::SimdFloatMult            0      0.00%     81.11% # Class of executed instruction. (Count)
system.timingCpu7.exec_context.thread_0.statExecutedInstType::SimdFloatMultAcc            0      0.00%     81.11% # Class of executed instruction. (Count)
system.timingCpu7.exec_context.thread_0.statExecutedInstType::SimdFloatSqrt            0      0.00%     81.11% # Class of executed instruction. (Count)
system.timingCpu7.exec_context.thread_0.statExecutedInstType::SimdReduceAdd            0      0.00%     81.11% # Class of executed instruction. (Count)
system.timingCpu7.exec_context.thread_0.statExecutedInstType::SimdReduceAlu            0      0.00%     81.11% # Class of executed instruction. (Count)
system.timingCpu7.exec_context.thread_0.statExecutedInstType::SimdReduceCmp            0      0.00%     81.11% # Class of executed instruction. (Count)
system.timingCpu7.exec_context.thread_0.statExecutedInstType::SimdFloatReduceAdd            0      0.00%     81.11% # Class of executed instruction. (Count)
system.timingCpu7.exec_context.thread_0.statExecutedInstType::SimdFloatReduceCmp            0      0.00%     81.11% # Class of executed instruction. (Count)
system.timingCpu7.exec_context.thread_0.statExecutedInstType::SimdAes            0      0.00%     81.11% # Class of executed instruction. (Count)
system.timingCpu7.exec_context.thread_0.statExecutedInstType::SimdAesMix            0      0.00%     81.11% # Class of executed instruction. (Count)
system.timingCpu7.exec_context.thread_0.statExecutedInstType::SimdSha1Hash            0      0.00%     81.11% # Class of executed instruction. (Count)
system.timingCpu7.exec_context.thread_0.statExecutedInstType::SimdSha1Hash2            0      0.00%     81.11% # Class of executed instruction. (Count)
system.timingCpu7.exec_context.thread_0.statExecutedInstType::SimdSha256Hash            0      0.00%     81.11% # Class of executed instruction. (Count)
system.timingCpu7.exec_context.thread_0.statExecutedInstType::SimdSha256Hash2            0      0.00%     81.11% # Class of executed instruction. (Count)
system.timingCpu7.exec_context.thread_0.statExecutedInstType::SimdShaSigma2            0      0.00%     81.11% # Class of executed instruction. (Count)
system.timingCpu7.exec_context.thread_0.statExecutedInstType::SimdShaSigma3            0      0.00%     81.11% # Class of executed instruction. (Count)
system.timingCpu7.exec_context.thread_0.statExecutedInstType::SimdPredAlu            0      0.00%     81.11% # Class of executed instruction. (Count)
system.timingCpu7.exec_context.thread_0.statExecutedInstType::MemRead       899845     12.88%     93.99% # Class of executed instruction. (Count)
system.timingCpu7.exec_context.thread_0.statExecutedInstType::MemWrite       419648      6.01%     99.99% # Class of executed instruction. (Count)
system.timingCpu7.exec_context.thread_0.statExecutedInstType::FloatMemRead          222      0.00%    100.00% # Class of executed instruction. (Count)
system.timingCpu7.exec_context.thread_0.statExecutedInstType::FloatMemWrite          328      0.00%    100.00% # Class of executed instruction. (Count)
system.timingCpu7.exec_context.thread_0.statExecutedInstType::IprAccess            0      0.00%    100.00% # Class of executed instruction. (Count)
system.timingCpu7.exec_context.thread_0.statExecutedInstType::InstPrefetch            0      0.00%    100.00% # Class of executed instruction. (Count)
system.timingCpu7.exec_context.thread_0.statExecutedInstType::total      6986400                       # Class of executed instruction. (Count)
system.timingCpu7.mmu.dtb.rdAccesses           901619                       # TLB accesses on read requests (Count)
system.timingCpu7.mmu.dtb.wrAccesses           420141                       # TLB accesses on write requests (Count)
system.timingCpu7.mmu.dtb.rdMisses               1558                       # TLB misses on read requests (Count)
system.timingCpu7.mmu.dtb.wrMisses                208                       # TLB misses on write requests (Count)
system.timingCpu7.mmu.dtb.walker.power_state.pwrStateResidencyTicks::UNDEFINED 1225289701251                       # Cumulative time (in ticks) in various power states (Tick)
system.timingCpu7.mmu.itb.rdAccesses                0                       # TLB accesses on read requests (Count)
system.timingCpu7.mmu.itb.wrAccesses          4146875                       # TLB accesses on write requests (Count)
system.timingCpu7.mmu.itb.rdMisses                  0                       # TLB misses on read requests (Count)
system.timingCpu7.mmu.itb.wrMisses                289                       # TLB misses on write requests (Count)
system.timingCpu7.mmu.itb.walker.power_state.pwrStateResidencyTicks::UNDEFINED 1225289701251                       # Cumulative time (in ticks) in various power states (Tick)
system.timingCpu7.power_state.numTransitions         2458                       # Number of power state transitions (Count)
system.timingCpu7.power_state.ticksClkGated::samples         1229                       # Distribution of time spent in the clock gated state (Tick)
system.timingCpu7.power_state.ticksClkGated::mean 993562432.668836                       # Distribution of time spent in the clock gated state (Tick)
system.timingCpu7.power_state.ticksClkGated::stdev 58752554.865954                       # Distribution of time spent in the clock gated state (Tick)
system.timingCpu7.power_state.ticksClkGated::1000-5e+10         1229    100.00%    100.00% # Distribution of time spent in the clock gated state (Tick)
system.timingCpu7.power_state.ticksClkGated::min_value      1330750                       # Distribution of time spent in the clock gated state (Tick)
system.timingCpu7.power_state.ticksClkGated::max_value    998691250                       # Distribution of time spent in the clock gated state (Tick)
system.timingCpu7.power_state.ticksClkGated::total         1229                       # Distribution of time spent in the clock gated state (Tick)
system.timingCpu7.power_state.pwrStateResidencyTicks::ON   4201471501                       # Cumulative time (in ticks) in various power states (Tick)
system.timingCpu7.power_state.pwrStateResidencyTicks::CLK_GATED 1221088229750                       # Cumulative time (in ticks) in various power states (Tick)
system.timingCpu7.thread_0.numInsts                 0                       # Number of Instructions committed (Count)
system.timingCpu7.thread_0.numOps                   0                       # Number of Ops committed (Count)
system.timingCpu7.thread_0.numMemRefs               0                       # Number of Memory References (Count)
system.workload.inst.arm                            0                       # number of arm instructions executed (Count)
system.workload.inst.quiesce                        0                       # number of quiesce instructions executed (Count)

---------- End Simulation Statistics   ----------
