
---------- Begin Simulation Statistics ----------
simSeconds                                          2                       # Number of seconds simulated (Second)
simTicks                                 2000000000000                       # Number of ticks simulated (Tick)
finalTick                                156319320182500                       # Number of ticks from beginning of simulation (restored from checkpoints and never reset) (Tick)
simFreq                                  1000000000000                       # The number of ticks per simulated second ((Tick/Second))
hostSeconds                                  10445.11                       # Real time elapsed on the host (Second)
hostTickRate                                191477152                       # The number of ticks simulated per host second (ticks/s) ((Tick/Second))
hostMemory                                    9587376                       # Number of bytes of host memory used (Byte)
simInsts                                  41259063734                       # Number of instructions simulated (Count)
simOps                                    43098617711                       # Number of ops (including micro ops) simulated (Count)
hostInstRate                                  3950084                       # Simulator instruction rate (inst/s) ((Count/Second))
hostOpRate                                    4126200                       # Simulator op (including micro ops) rate (op/s) ((Count/Second))
system.atomicCpu0.numCycles                         0                       # Number of cpu cycles simulated (Cycle)
system.atomicCpu0.numWorkItemsStarted               0                       # Number of work items this cpu started (Count)
system.atomicCpu0.numWorkItemsCompleted             0                       # Number of work items this cpu completed (Count)
system.atomicCpu0.exec_context.thread_0.numInsts            0                       # Number of instructions committed (Count)
system.atomicCpu0.exec_context.thread_0.numOps            0                       # Number of ops (including micro ops) committed (Count)
system.atomicCpu0.exec_context.thread_0.numIntAluAccesses            0                       # Number of integer alu accesses (Count)
system.atomicCpu0.exec_context.thread_0.numFpAluAccesses            0                       # Number of float alu accesses (Count)
system.atomicCpu0.exec_context.thread_0.numVecAluAccesses            0                       # Number of vector alu accesses (Count)
system.atomicCpu0.exec_context.thread_0.numCallsReturns            0                       # Number of times a function call or return occured (Count)
system.atomicCpu0.exec_context.thread_0.numCondCtrlInsts            0                       # Number of instructions that are conditional controls (Count)
system.atomicCpu0.exec_context.thread_0.numIntInsts            0                       # Number of integer instructions (Count)
system.atomicCpu0.exec_context.thread_0.numFpInsts            0                       # Number of float instructions (Count)
system.atomicCpu0.exec_context.thread_0.numVecInsts            0                       # Number of vector instructions (Count)
system.atomicCpu0.exec_context.thread_0.numIntRegReads            0                       # Number of times the integer registers were read (Count)
system.atomicCpu0.exec_context.thread_0.numIntRegWrites            0                       # Number of times the integer registers were written (Count)
system.atomicCpu0.exec_context.thread_0.numFpRegReads            0                       # Number of times the floating registers were read (Count)
system.atomicCpu0.exec_context.thread_0.numFpRegWrites            0                       # Number of times the floating registers were written (Count)
system.atomicCpu0.exec_context.thread_0.numVecRegReads            0                       # Number of times the vector registers were read (Count)
system.atomicCpu0.exec_context.thread_0.numVecRegWrites            0                       # Number of times the vector registers were written (Count)
system.atomicCpu0.exec_context.thread_0.numVecPredRegReads            0                       # Number of times the predicate registers were read (Count)
system.atomicCpu0.exec_context.thread_0.numVecPredRegWrites            0                       # Number of times the predicate registers were written (Count)
system.atomicCpu0.exec_context.thread_0.numMiscRegReads            0                       # Number of times the Misc registers were read (Count)
system.atomicCpu0.exec_context.thread_0.numMiscRegWrites            0                       # Number of times the Misc registers were written (Count)
system.atomicCpu0.exec_context.thread_0.numMemRefs            0                       # Number of memory refs (Count)
system.atomicCpu0.exec_context.thread_0.numLoadInsts            0                       # Number of load instructions (Count)
system.atomicCpu0.exec_context.thread_0.numStoreInsts            0                       # Number of store instructions (Count)
system.atomicCpu0.exec_context.thread_0.numIdleCycles            0                       # Number of idle cycles (Cycle)
system.atomicCpu0.exec_context.thread_0.numBusyCycles            0                       # Number of busy cycles (Cycle)
system.atomicCpu0.exec_context.thread_0.notIdleFraction            0                       # Percentage of non-idle cycles (Ratio)
system.atomicCpu0.exec_context.thread_0.idleFraction            1                       # Percentage of idle cycles (Ratio)
system.atomicCpu0.exec_context.thread_0.statExecutedInstType::No_OpClass            0                       # Class of executed instruction. (Count)
system.atomicCpu0.exec_context.thread_0.statExecutedInstType::IntAlu            0                       # Class of executed instruction. (Count)
system.atomicCpu0.exec_context.thread_0.statExecutedInstType::IntMult            0                       # Class of executed instruction. (Count)
system.atomicCpu0.exec_context.thread_0.statExecutedInstType::IntDiv            0                       # Class of executed instruction. (Count)
system.atomicCpu0.exec_context.thread_0.statExecutedInstType::FloatAdd            0                       # Class of executed instruction. (Count)
system.atomicCpu0.exec_context.thread_0.statExecutedInstType::FloatCmp            0                       # Class of executed instruction. (Count)
system.atomicCpu0.exec_context.thread_0.statExecutedInstType::FloatCvt            0                       # Class of executed instruction. (Count)
system.atomicCpu0.exec_context.thread_0.statExecutedInstType::FloatMult            0                       # Class of executed instruction. (Count)
system.atomicCpu0.exec_context.thread_0.statExecutedInstType::FloatMultAcc            0                       # Class of executed instruction. (Count)
system.atomicCpu0.exec_context.thread_0.statExecutedInstType::FloatDiv            0                       # Class of executed instruction. (Count)
system.atomicCpu0.exec_context.thread_0.statExecutedInstType::FloatMisc            0                       # Class of executed instruction. (Count)
system.atomicCpu0.exec_context.thread_0.statExecutedInstType::FloatSqrt            0                       # Class of executed instruction. (Count)
system.atomicCpu0.exec_context.thread_0.statExecutedInstType::SimdAdd            0                       # Class of executed instruction. (Count)
system.atomicCpu0.exec_context.thread_0.statExecutedInstType::SimdAddAcc            0                       # Class of executed instruction. (Count)
system.atomicCpu0.exec_context.thread_0.statExecutedInstType::SimdAlu            0                       # Class of executed instruction. (Count)
system.atomicCpu0.exec_context.thread_0.statExecutedInstType::SimdCmp            0                       # Class of executed instruction. (Count)
system.atomicCpu0.exec_context.thread_0.statExecutedInstType::SimdCvt            0                       # Class of executed instruction. (Count)
system.atomicCpu0.exec_context.thread_0.statExecutedInstType::SimdMisc            0                       # Class of executed instruction. (Count)
system.atomicCpu0.exec_context.thread_0.statExecutedInstType::SimdMult            0                       # Class of executed instruction. (Count)
system.atomicCpu0.exec_context.thread_0.statExecutedInstType::SimdMultAcc            0                       # Class of executed instruction. (Count)
system.atomicCpu0.exec_context.thread_0.statExecutedInstType::SimdShift            0                       # Class of executed instruction. (Count)
system.atomicCpu0.exec_context.thread_0.statExecutedInstType::SimdShiftAcc            0                       # Class of executed instruction. (Count)
system.atomicCpu0.exec_context.thread_0.statExecutedInstType::SimdDiv            0                       # Class of executed instruction. (Count)
system.atomicCpu0.exec_context.thread_0.statExecutedInstType::SimdSqrt            0                       # Class of executed instruction. (Count)
system.atomicCpu0.exec_context.thread_0.statExecutedInstType::SimdFloatAdd            0                       # Class of executed instruction. (Count)
system.atomicCpu0.exec_context.thread_0.statExecutedInstType::SimdFloatAlu            0                       # Class of executed instruction. (Count)
system.atomicCpu0.exec_context.thread_0.statExecutedInstType::SimdFloatCmp            0                       # Class of executed instruction. (Count)
system.atomicCpu0.exec_context.thread_0.statExecutedInstType::SimdFloatCvt            0                       # Class of executed instruction. (Count)
system.atomicCpu0.exec_context.thread_0.statExecutedInstType::SimdFloatDiv            0                       # Class of executed instruction. (Count)
system.atomicCpu0.exec_context.thread_0.statExecutedInstType::SimdFloatMisc            0                       # Class of executed instruction. (Count)
system.atomicCpu0.exec_context.thread_0.statExecutedInstType::SimdFloatMult            0                       # Class of executed instruction. (Count)
system.atomicCpu0.exec_context.thread_0.statExecutedInstType::SimdFloatMultAcc            0                       # Class of executed instruction. (Count)
system.atomicCpu0.exec_context.thread_0.statExecutedInstType::SimdFloatSqrt            0                       # Class of executed instruction. (Count)
system.atomicCpu0.exec_context.thread_0.statExecutedInstType::SimdReduceAdd            0                       # Class of executed instruction. (Count)
system.atomicCpu0.exec_context.thread_0.statExecutedInstType::SimdReduceAlu            0                       # Class of executed instruction. (Count)
system.atomicCpu0.exec_context.thread_0.statExecutedInstType::SimdReduceCmp            0                       # Class of executed instruction. (Count)
system.atomicCpu0.exec_context.thread_0.statExecutedInstType::SimdFloatReduceAdd            0                       # Class of executed instruction. (Count)
system.atomicCpu0.exec_context.thread_0.statExecutedInstType::SimdFloatReduceCmp            0                       # Class of executed instruction. (Count)
system.atomicCpu0.exec_context.thread_0.statExecutedInstType::SimdAes            0                       # Class of executed instruction. (Count)
system.atomicCpu0.exec_context.thread_0.statExecutedInstType::SimdAesMix            0                       # Class of executed instruction. (Count)
system.atomicCpu0.exec_context.thread_0.statExecutedInstType::SimdSha1Hash            0                       # Class of executed instruction. (Count)
system.atomicCpu0.exec_context.thread_0.statExecutedInstType::SimdSha1Hash2            0                       # Class of executed instruction. (Count)
system.atomicCpu0.exec_context.thread_0.statExecutedInstType::SimdSha256Hash            0                       # Class of executed instruction. (Count)
system.atomicCpu0.exec_context.thread_0.statExecutedInstType::SimdSha256Hash2            0                       # Class of executed instruction. (Count)
system.atomicCpu0.exec_context.thread_0.statExecutedInstType::SimdShaSigma2            0                       # Class of executed instruction. (Count)
system.atomicCpu0.exec_context.thread_0.statExecutedInstType::SimdShaSigma3            0                       # Class of executed instruction. (Count)
system.atomicCpu0.exec_context.thread_0.statExecutedInstType::SimdPredAlu            0                       # Class of executed instruction. (Count)
system.atomicCpu0.exec_context.thread_0.statExecutedInstType::MemRead            0                       # Class of executed instruction. (Count)
system.atomicCpu0.exec_context.thread_0.statExecutedInstType::MemWrite            0                       # Class of executed instruction. (Count)
system.atomicCpu0.exec_context.thread_0.statExecutedInstType::FloatMemRead            0                       # Class of executed instruction. (Count)
system.atomicCpu0.exec_context.thread_0.statExecutedInstType::FloatMemWrite            0                       # Class of executed instruction. (Count)
system.atomicCpu0.exec_context.thread_0.statExecutedInstType::IprAccess            0                       # Class of executed instruction. (Count)
system.atomicCpu0.exec_context.thread_0.statExecutedInstType::InstPrefetch            0                       # Class of executed instruction. (Count)
system.atomicCpu0.exec_context.thread_0.statExecutedInstType::total            0                       # Class of executed instruction. (Count)
system.atomicCpu0.mmu.dtb.rdAccesses                0                       # TLB accesses on read requests (Count)
system.atomicCpu0.mmu.dtb.wrAccesses                0                       # TLB accesses on write requests (Count)
system.atomicCpu0.mmu.dtb.rdMisses                  0                       # TLB misses on read requests (Count)
system.atomicCpu0.mmu.dtb.wrMisses                  0                       # TLB misses on write requests (Count)
system.atomicCpu0.mmu.dtb.walker.power_state.pwrStateResidencyTicks::UNDEFINED 156319320182500                       # Cumulative time (in ticks) in various power states (Tick)
system.atomicCpu0.mmu.itb.rdAccesses                0                       # TLB accesses on read requests (Count)
system.atomicCpu0.mmu.itb.wrAccesses                0                       # TLB accesses on write requests (Count)
system.atomicCpu0.mmu.itb.rdMisses                  0                       # TLB misses on read requests (Count)
system.atomicCpu0.mmu.itb.wrMisses                  0                       # TLB misses on write requests (Count)
system.atomicCpu0.mmu.itb.walker.power_state.pwrStateResidencyTicks::UNDEFINED 156319320182500                       # Cumulative time (in ticks) in various power states (Tick)
system.atomicCpu0.power_state.pwrStateResidencyTicks::OFF 156319320182500                       # Cumulative time (in ticks) in various power states (Tick)
system.atomicCpu0.thread_0.numInsts                 0                       # Number of Instructions committed (Count)
system.atomicCpu0.thread_0.numOps                   0                       # Number of Ops committed (Count)
system.atomicCpu0.thread_0.numMemRefs               0                       # Number of Memory References (Count)
system.atomicCpu1.numCycles                         0                       # Number of cpu cycles simulated (Cycle)
system.atomicCpu1.numWorkItemsStarted               0                       # Number of work items this cpu started (Count)
system.atomicCpu1.numWorkItemsCompleted             0                       # Number of work items this cpu completed (Count)
system.atomicCpu1.exec_context.thread_0.numInsts            0                       # Number of instructions committed (Count)
system.atomicCpu1.exec_context.thread_0.numOps            0                       # Number of ops (including micro ops) committed (Count)
system.atomicCpu1.exec_context.thread_0.numIntAluAccesses            0                       # Number of integer alu accesses (Count)
system.atomicCpu1.exec_context.thread_0.numFpAluAccesses            0                       # Number of float alu accesses (Count)
system.atomicCpu1.exec_context.thread_0.numVecAluAccesses            0                       # Number of vector alu accesses (Count)
system.atomicCpu1.exec_context.thread_0.numCallsReturns            0                       # Number of times a function call or return occured (Count)
system.atomicCpu1.exec_context.thread_0.numCondCtrlInsts            0                       # Number of instructions that are conditional controls (Count)
system.atomicCpu1.exec_context.thread_0.numIntInsts            0                       # Number of integer instructions (Count)
system.atomicCpu1.exec_context.thread_0.numFpInsts            0                       # Number of float instructions (Count)
system.atomicCpu1.exec_context.thread_0.numVecInsts            0                       # Number of vector instructions (Count)
system.atomicCpu1.exec_context.thread_0.numIntRegReads            0                       # Number of times the integer registers were read (Count)
system.atomicCpu1.exec_context.thread_0.numIntRegWrites            0                       # Number of times the integer registers were written (Count)
system.atomicCpu1.exec_context.thread_0.numFpRegReads            0                       # Number of times the floating registers were read (Count)
system.atomicCpu1.exec_context.thread_0.numFpRegWrites            0                       # Number of times the floating registers were written (Count)
system.atomicCpu1.exec_context.thread_0.numVecRegReads            0                       # Number of times the vector registers were read (Count)
system.atomicCpu1.exec_context.thread_0.numVecRegWrites            0                       # Number of times the vector registers were written (Count)
system.atomicCpu1.exec_context.thread_0.numVecPredRegReads            0                       # Number of times the predicate registers were read (Count)
system.atomicCpu1.exec_context.thread_0.numVecPredRegWrites            0                       # Number of times the predicate registers were written (Count)
system.atomicCpu1.exec_context.thread_0.numMiscRegReads            0                       # Number of times the Misc registers were read (Count)
system.atomicCpu1.exec_context.thread_0.numMiscRegWrites            0                       # Number of times the Misc registers were written (Count)
system.atomicCpu1.exec_context.thread_0.numMemRefs            0                       # Number of memory refs (Count)
system.atomicCpu1.exec_context.thread_0.numLoadInsts            0                       # Number of load instructions (Count)
system.atomicCpu1.exec_context.thread_0.numStoreInsts            0                       # Number of store instructions (Count)
system.atomicCpu1.exec_context.thread_0.numIdleCycles            0                       # Number of idle cycles (Cycle)
system.atomicCpu1.exec_context.thread_0.numBusyCycles            0                       # Number of busy cycles (Cycle)
system.atomicCpu1.exec_context.thread_0.notIdleFraction            0                       # Percentage of non-idle cycles (Ratio)
system.atomicCpu1.exec_context.thread_0.idleFraction            1                       # Percentage of idle cycles (Ratio)
system.atomicCpu1.exec_context.thread_0.statExecutedInstType::No_OpClass            0                       # Class of executed instruction. (Count)
system.atomicCpu1.exec_context.thread_0.statExecutedInstType::IntAlu            0                       # Class of executed instruction. (Count)
system.atomicCpu1.exec_context.thread_0.statExecutedInstType::IntMult            0                       # Class of executed instruction. (Count)
system.atomicCpu1.exec_context.thread_0.statExecutedInstType::IntDiv            0                       # Class of executed instruction. (Count)
system.atomicCpu1.exec_context.thread_0.statExecutedInstType::FloatAdd            0                       # Class of executed instruction. (Count)
system.atomicCpu1.exec_context.thread_0.statExecutedInstType::FloatCmp            0                       # Class of executed instruction. (Count)
system.atomicCpu1.exec_context.thread_0.statExecutedInstType::FloatCvt            0                       # Class of executed instruction. (Count)
system.atomicCpu1.exec_context.thread_0.statExecutedInstType::FloatMult            0                       # Class of executed instruction. (Count)
system.atomicCpu1.exec_context.thread_0.statExecutedInstType::FloatMultAcc            0                       # Class of executed instruction. (Count)
system.atomicCpu1.exec_context.thread_0.statExecutedInstType::FloatDiv            0                       # Class of executed instruction. (Count)
system.atomicCpu1.exec_context.thread_0.statExecutedInstType::FloatMisc            0                       # Class of executed instruction. (Count)
system.atomicCpu1.exec_context.thread_0.statExecutedInstType::FloatSqrt            0                       # Class of executed instruction. (Count)
system.atomicCpu1.exec_context.thread_0.statExecutedInstType::SimdAdd            0                       # Class of executed instruction. (Count)
system.atomicCpu1.exec_context.thread_0.statExecutedInstType::SimdAddAcc            0                       # Class of executed instruction. (Count)
system.atomicCpu1.exec_context.thread_0.statExecutedInstType::SimdAlu            0                       # Class of executed instruction. (Count)
system.atomicCpu1.exec_context.thread_0.statExecutedInstType::SimdCmp            0                       # Class of executed instruction. (Count)
system.atomicCpu1.exec_context.thread_0.statExecutedInstType::SimdCvt            0                       # Class of executed instruction. (Count)
system.atomicCpu1.exec_context.thread_0.statExecutedInstType::SimdMisc            0                       # Class of executed instruction. (Count)
system.atomicCpu1.exec_context.thread_0.statExecutedInstType::SimdMult            0                       # Class of executed instruction. (Count)
system.atomicCpu1.exec_context.thread_0.statExecutedInstType::SimdMultAcc            0                       # Class of executed instruction. (Count)
system.atomicCpu1.exec_context.thread_0.statExecutedInstType::SimdShift            0                       # Class of executed instruction. (Count)
system.atomicCpu1.exec_context.thread_0.statExecutedInstType::SimdShiftAcc            0                       # Class of executed instruction. (Count)
system.atomicCpu1.exec_context.thread_0.statExecutedInstType::SimdDiv            0                       # Class of executed instruction. (Count)
system.atomicCpu1.exec_context.thread_0.statExecutedInstType::SimdSqrt            0                       # Class of executed instruction. (Count)
system.atomicCpu1.exec_context.thread_0.statExecutedInstType::SimdFloatAdd            0                       # Class of executed instruction. (Count)
system.atomicCpu1.exec_context.thread_0.statExecutedInstType::SimdFloatAlu            0                       # Class of executed instruction. (Count)
system.atomicCpu1.exec_context.thread_0.statExecutedInstType::SimdFloatCmp            0                       # Class of executed instruction. (Count)
system.atomicCpu1.exec_context.thread_0.statExecutedInstType::SimdFloatCvt            0                       # Class of executed instruction. (Count)
system.atomicCpu1.exec_context.thread_0.statExecutedInstType::SimdFloatDiv            0                       # Class of executed instruction. (Count)
system.atomicCpu1.exec_context.thread_0.statExecutedInstType::SimdFloatMisc            0                       # Class of executed instruction. (Count)
system.atomicCpu1.exec_context.thread_0.statExecutedInstType::SimdFloatMult            0                       # Class of executed instruction. (Count)
system.atomicCpu1.exec_context.thread_0.statExecutedInstType::SimdFloatMultAcc            0                       # Class of executed instruction. (Count)
system.atomicCpu1.exec_context.thread_0.statExecutedInstType::SimdFloatSqrt            0                       # Class of executed instruction. (Count)
system.atomicCpu1.exec_context.thread_0.statExecutedInstType::SimdReduceAdd            0                       # Class of executed instruction. (Count)
system.atomicCpu1.exec_context.thread_0.statExecutedInstType::SimdReduceAlu            0                       # Class of executed instruction. (Count)
system.atomicCpu1.exec_context.thread_0.statExecutedInstType::SimdReduceCmp            0                       # Class of executed instruction. (Count)
system.atomicCpu1.exec_context.thread_0.statExecutedInstType::SimdFloatReduceAdd            0                       # Class of executed instruction. (Count)
system.atomicCpu1.exec_context.thread_0.statExecutedInstType::SimdFloatReduceCmp            0                       # Class of executed instruction. (Count)
system.atomicCpu1.exec_context.thread_0.statExecutedInstType::SimdAes            0                       # Class of executed instruction. (Count)
system.atomicCpu1.exec_context.thread_0.statExecutedInstType::SimdAesMix            0                       # Class of executed instruction. (Count)
system.atomicCpu1.exec_context.thread_0.statExecutedInstType::SimdSha1Hash            0                       # Class of executed instruction. (Count)
system.atomicCpu1.exec_context.thread_0.statExecutedInstType::SimdSha1Hash2            0                       # Class of executed instruction. (Count)
system.atomicCpu1.exec_context.thread_0.statExecutedInstType::SimdSha256Hash            0                       # Class of executed instruction. (Count)
system.atomicCpu1.exec_context.thread_0.statExecutedInstType::SimdSha256Hash2            0                       # Class of executed instruction. (Count)
system.atomicCpu1.exec_context.thread_0.statExecutedInstType::SimdShaSigma2            0                       # Class of executed instruction. (Count)
system.atomicCpu1.exec_context.thread_0.statExecutedInstType::SimdShaSigma3            0                       # Class of executed instruction. (Count)
system.atomicCpu1.exec_context.thread_0.statExecutedInstType::SimdPredAlu            0                       # Class of executed instruction. (Count)
system.atomicCpu1.exec_context.thread_0.statExecutedInstType::MemRead            0                       # Class of executed instruction. (Count)
system.atomicCpu1.exec_context.thread_0.statExecutedInstType::MemWrite            0                       # Class of executed instruction. (Count)
system.atomicCpu1.exec_context.thread_0.statExecutedInstType::FloatMemRead            0                       # Class of executed instruction. (Count)
system.atomicCpu1.exec_context.thread_0.statExecutedInstType::FloatMemWrite            0                       # Class of executed instruction. (Count)
system.atomicCpu1.exec_context.thread_0.statExecutedInstType::IprAccess            0                       # Class of executed instruction. (Count)
system.atomicCpu1.exec_context.thread_0.statExecutedInstType::InstPrefetch            0                       # Class of executed instruction. (Count)
system.atomicCpu1.exec_context.thread_0.statExecutedInstType::total            0                       # Class of executed instruction. (Count)
system.atomicCpu1.mmu.dtb.rdAccesses                0                       # TLB accesses on read requests (Count)
system.atomicCpu1.mmu.dtb.wrAccesses                0                       # TLB accesses on write requests (Count)
system.atomicCpu1.mmu.dtb.rdMisses                  0                       # TLB misses on read requests (Count)
system.atomicCpu1.mmu.dtb.wrMisses                  0                       # TLB misses on write requests (Count)
system.atomicCpu1.mmu.dtb.walker.power_state.pwrStateResidencyTicks::UNDEFINED 156319320182500                       # Cumulative time (in ticks) in various power states (Tick)
system.atomicCpu1.mmu.itb.rdAccesses                0                       # TLB accesses on read requests (Count)
system.atomicCpu1.mmu.itb.wrAccesses                0                       # TLB accesses on write requests (Count)
system.atomicCpu1.mmu.itb.rdMisses                  0                       # TLB misses on read requests (Count)
system.atomicCpu1.mmu.itb.wrMisses                  0                       # TLB misses on write requests (Count)
system.atomicCpu1.mmu.itb.walker.power_state.pwrStateResidencyTicks::UNDEFINED 156319320182500                       # Cumulative time (in ticks) in various power states (Tick)
system.atomicCpu1.power_state.pwrStateResidencyTicks::OFF 156319320182500                       # Cumulative time (in ticks) in various power states (Tick)
system.atomicCpu1.thread_0.numInsts                 0                       # Number of Instructions committed (Count)
system.atomicCpu1.thread_0.numOps                   0                       # Number of Ops committed (Count)
system.atomicCpu1.thread_0.numMemRefs               0                       # Number of Memory References (Count)
system.caches.delayHistogram::bucket_size          128                       # delay histogram for all message (Unspecified)
system.caches.delayHistogram::max_bucket         1279                       # delay histogram for all message (Unspecified)
system.caches.delayHistogram::samples       137314003                       # delay histogram for all message (Unspecified)
system.caches.delayHistogram::mean           0.466781                       # delay histogram for all message (Unspecified)
system.caches.delayHistogram::stdev          1.881062                       # delay histogram for all message (Unspecified)
system.caches.delayHistogram             |   137313992    100.00%    100.00% |           3      0.00%    100.00% |           4      0.00%    100.00% |           2      0.00%    100.00% |           1      0.00%    100.00% |           1      0.00%    100.00% |           0      0.00%    100.00% |           0      0.00%    100.00% |           0      0.00%    100.00% |           0      0.00%    100.00% # delay histogram for all message (Unspecified)
system.caches.delayHistogram::total         137314003                       # delay histogram for all message (Unspecified)
system.caches.m_outstandReqHistSeqr::bucket_size            1                       (Unspecified)
system.caches.m_outstandReqHistSeqr::max_bucket            9                       (Unspecified)
system.caches.m_outstandReqHistSeqr::samples   4697618167                       (Unspecified)
system.caches.m_outstandReqHistSeqr::mean     1.000055                       (Unspecified)
system.caches.m_outstandReqHistSeqr::gmean     1.000038                       (Unspecified)
system.caches.m_outstandReqHistSeqr::stdev     0.007394                       (Unspecified)
system.caches.m_outstandReqHistSeqr      |           0      0.00%      0.00% |  4697361338     99.99%     99.99% |      256829      0.01%    100.00% |           0      0.00%    100.00% |           0      0.00%    100.00% |           0      0.00%    100.00% |           0      0.00%    100.00% |           0      0.00%    100.00% |           0      0.00%    100.00% |           0      0.00%    100.00% (Unspecified)
system.caches.m_outstandReqHistSeqr::total   4697618167                       (Unspecified)
system.caches.m_latencyHistSeqr::bucket_size          512                       (Unspecified)
system.caches.m_latencyHistSeqr::max_bucket         5119                       (Unspecified)
system.caches.m_latencyHistSeqr::samples   4697618165                       (Unspecified)
system.caches.m_latencyHistSeqr::mean        2.091280                       (Unspecified)
system.caches.m_latencyHistSeqr::gmean       1.026423                       (Unspecified)
system.caches.m_latencyHistSeqr::stdev      24.902776                       (Unspecified)
system.caches.m_latencyHistSeqr          |  4693793507     99.92%     99.92% |     3597287      0.08%    100.00% |       56210      0.00%    100.00% |      156605      0.00%    100.00% |       14396      0.00%    100.00% |         151      0.00%    100.00% |           8      0.00%    100.00% |           1      0.00%    100.00% |           0      0.00%    100.00% |           0      0.00%    100.00% (Unspecified)
system.caches.m_latencyHistSeqr::total     4697618165                       (Unspecified)
system.caches.m_hitLatencyHistSeqr::bucket_size            1                       (Unspecified)
system.caches.m_hitLatencyHistSeqr::max_bucket            9                       (Unspecified)
system.caches.m_hitLatencyHistSeqr::samples   4663831950                       (Unspecified)
system.caches.m_hitLatencyHistSeqr::mean            1                       (Unspecified)
system.caches.m_hitLatencyHistSeqr::gmean            1                       (Unspecified)
system.caches.m_hitLatencyHistSeqr       |           0      0.00%      0.00% |  4663831950    100.00%    100.00% |           0      0.00%    100.00% |           0      0.00%    100.00% |           0      0.00%    100.00% |           0      0.00%    100.00% |           0      0.00%    100.00% |           0      0.00%    100.00% |           0      0.00%    100.00% |           0      0.00%    100.00% (Unspecified)
system.caches.m_hitLatencyHistSeqr::total   4663831950                       (Unspecified)
system.caches.m_missLatencyHistSeqr::bucket_size          512                       (Unspecified)
system.caches.m_missLatencyHistSeqr::max_bucket         5119                       (Unspecified)
system.caches.m_missLatencyHistSeqr::samples     33786215                       (Unspecified)
system.caches.m_missLatencyHistSeqr::mean   152.731070                       (Unspecified)
system.caches.m_missLatencyHistSeqr::gmean    37.565638                       (Unspecified)
system.caches.m_missLatencyHistSeqr::stdev   251.730729                       (Unspecified)
system.caches.m_missLatencyHistSeqr      |    29961557     88.68%     88.68% |     3597287     10.65%     99.33% |       56210      0.17%     99.49% |      156605      0.46%     99.96% |       14396      0.04%    100.00% |         151      0.00%    100.00% |           8      0.00%    100.00% |           1      0.00%    100.00% |           0      0.00%    100.00% |           0      0.00%    100.00% (Unspecified)
system.caches.m_missLatencyHistSeqr::total     33786215                       (Unspecified)
system.caches.delayVCHist.vnet_0::bucket_size          128                       # delay histogram for vnet_0 (Unspecified)
system.caches.delayVCHist.vnet_0::max_bucket         1279                       # delay histogram for vnet_0 (Unspecified)
system.caches.delayVCHist.vnet_0::samples     66479972                       # delay histogram for vnet_0 (Unspecified)
system.caches.delayVCHist.vnet_0::mean       0.963763                       # delay histogram for vnet_0 (Unspecified)
system.caches.delayVCHist.vnet_0::stdev      2.612972                       # delay histogram for vnet_0 (Unspecified)
system.caches.delayVCHist.vnet_0         |    66479961    100.00%    100.00% |           3      0.00%    100.00% |           4      0.00%    100.00% |           2      0.00%    100.00% |           1      0.00%    100.00% |           1      0.00%    100.00% |           0      0.00%    100.00% |           0      0.00%    100.00% |           0      0.00%    100.00% |           0      0.00%    100.00% # delay histogram for vnet_0 (Unspecified)
system.caches.delayVCHist.vnet_0::total      66479972                       # delay histogram for vnet_0 (Unspecified)
system.caches.delayVCHist.vnet_1::bucket_size            2                       # delay histogram for vnet_1 (Unspecified)
system.caches.delayVCHist.vnet_1::max_bucket           19                       # delay histogram for vnet_1 (Unspecified)
system.caches.delayVCHist.vnet_1::samples     69931102                       # delay histogram for vnet_1 (Unspecified)
system.caches.delayVCHist.vnet_1::mean       0.000350                       # delay histogram for vnet_1 (Unspecified)
system.caches.delayVCHist.vnet_1::stdev      0.044761                       # delay histogram for vnet_1 (Unspecified)
system.caches.delayVCHist.vnet_1         |    69925940     99.99%     99.99% |        1445      0.00%     99.99% |        1269      0.00%    100.00% |        1524      0.00%    100.00% |         923      0.00%    100.00% |           1      0.00%    100.00% |           0      0.00%    100.00% |           0      0.00%    100.00% |           0      0.00%    100.00% |           0      0.00%    100.00% # delay histogram for vnet_1 (Unspecified)
system.caches.delayVCHist.vnet_1::total      69931102                       # delay histogram for vnet_1 (Unspecified)
system.caches.delayVCHist.vnet_2::bucket_size            1                       # delay histogram for vnet_2 (Unspecified)
system.caches.delayVCHist.vnet_2::max_bucket            9                       # delay histogram for vnet_2 (Unspecified)
system.caches.delayVCHist.vnet_2::samples       902929                       # delay histogram for vnet_2 (Unspecified)
system.caches.delayVCHist.vnet_2::mean       0.000102                       # delay histogram for vnet_2 (Unspecified)
system.caches.delayVCHist.vnet_2::stdev      0.014275                       # delay histogram for vnet_2 (Unspecified)
system.caches.delayVCHist.vnet_2         |      902883     99.99%     99.99% |           0      0.00%     99.99% |          46      0.01%    100.00% |           0      0.00%    100.00% |           0      0.00%    100.00% |           0      0.00%    100.00% |           0      0.00%    100.00% |           0      0.00%    100.00% |           0      0.00%    100.00% |           0      0.00%    100.00% # delay histogram for vnet_2 (Unspecified)
system.caches.delayVCHist.vnet_2::total        902929                       # delay histogram for vnet_2 (Unspecified)
system.caches.L1Cache_Controller.Load    |   390657700     55.25%     55.25% |   316448602     44.75%    100.00% (Unspecified)
system.caches.L1Cache_Controller.Load::total    707106302                       (Unspecified)
system.caches.L1Cache_Controller.Ifetch  |  1978963342     54.26%     54.26% |  1667931467     45.74%    100.00% (Unspecified)
system.caches.L1Cache_Controller.Ifetch::total   3646894809                       (Unspecified)
system.caches.L1Cache_Controller.Store   |   186021232     54.14%     54.14% |   157595822     45.86%    100.00% (Unspecified)
system.caches.L1Cache_Controller.Store::total    343617054                       (Unspecified)
system.caches.L1Cache_Controller.Inv     |      275955     48.06%     48.06% |      298220     51.94%    100.00% (Unspecified)
system.caches.L1Cache_Controller.Inv::total       574175                       (Unspecified)
system.caches.L1Cache_Controller.L1_Replacement |    18274971     54.25%     54.25% |    15412766     45.75%    100.00% (Unspecified)
system.caches.L1Cache_Controller.L1_Replacement::total     33687737                       (Unspecified)
system.caches.L1Cache_Controller.Fwd_GETX |       10834     33.72%     33.72% |       21296     66.28%    100.00% (Unspecified)
system.caches.L1Cache_Controller.Fwd_GETX::total        32130                       (Unspecified)
system.caches.L1Cache_Controller.Fwd_GETS |      150829     50.85%     50.85% |      145795     49.15%    100.00% (Unspecified)
system.caches.L1Cache_Controller.Fwd_GETS::total       296624                       (Unspecified)
system.caches.L1Cache_Controller.Data    |        3204     99.53%     99.53% |          15      0.47%    100.00% (Unspecified)
system.caches.L1Cache_Controller.Data::total         3219                       (Unspecified)
system.caches.L1Cache_Controller.Data_Exclusive |     6252279     60.27%     60.27% |     4121436     39.73%    100.00% (Unspecified)
system.caches.L1Cache_Controller.Data_Exclusive::total     10373715                       (Unspecified)
system.caches.L1Cache_Controller.DataS_fromL1 |      145795     49.15%     49.15% |      150829     50.85%    100.00% (Unspecified)
system.caches.L1Cache_Controller.DataS_fromL1::total       296624                       (Unspecified)
system.caches.L1Cache_Controller.Data_all_Acks |    11908678     51.56%     51.56% |    11186435     48.44%    100.00% (Unspecified)
system.caches.L1Cache_Controller.Data_all_Acks::total     23095113                       (Unspecified)
system.caches.L1Cache_Controller.Ack     |       16556     94.37%     94.37% |         988      5.63%    100.00% (Unspecified)
system.caches.L1Cache_Controller.Ack::total        17544                       (Unspecified)
system.caches.L1Cache_Controller.Ack_all |       19760     95.17%     95.17% |        1003      4.83%    100.00% (Unspecified)
system.caches.L1Cache_Controller.Ack_all::total        20763                       (Unspecified)
system.caches.L1Cache_Controller.WB_Ack  |     9472304     59.12%     59.12% |     6550562     40.88%    100.00% (Unspecified)
system.caches.L1Cache_Controller.WB_Ack::total     16022866                       (Unspecified)
system.caches.L1Cache_Controller.NP.Load |    14810082     53.72%     53.72% |    12758261     46.28%    100.00% (Unspecified)
system.caches.L1Cache_Controller.NP.Load::total     27568343                       (Unspecified)
system.caches.L1Cache_Controller.NP.Ifetch |      102390     65.60%     65.60% |       53693     34.40%    100.00% (Unspecified)
system.caches.L1Cache_Controller.NP.Ifetch::total       156083                       (Unspecified)
system.caches.L1Cache_Controller.NP.Store |     3371202     56.37%     56.37% |     2609503     43.63%    100.00% (Unspecified)
system.caches.L1Cache_Controller.NP.Store::total      5980705                       (Unspecified)
system.caches.L1Cache_Controller.NP.Inv  |      246775     50.36%     50.36% |      243271     49.64%    100.00% (Unspecified)
system.caches.L1Cache_Controller.NP.Inv::total       490046                       (Unspecified)
system.caches.L1Cache_Controller.I.Load  |        4552     21.00%     21.00% |       17120     79.00%    100.00% (Unspecified)
system.caches.L1Cache_Controller.I.Load::total        21672                       (Unspecified)
system.caches.L1Cache_Controller.I.Ifetch |       20489     51.79%     51.79% |       19076     48.21%    100.00% (Unspecified)
system.caches.L1Cache_Controller.I.Ifetch::total        39565                       (Unspecified)
system.caches.L1Cache_Controller.I.Store |         948     54.26%     54.26% |         799     45.74%    100.00% (Unspecified)
system.caches.L1Cache_Controller.I.Store::total         1747                       (Unspecified)
system.caches.L1Cache_Controller.I.L1_Replacement |       13570     25.88%     25.88% |       38858     74.12%    100.00% (Unspecified)
system.caches.L1Cache_Controller.I.L1_Replacement::total        52428                       (Unspecified)
system.caches.L1Cache_Controller.S.Load  |    43234386     49.45%     49.45% |    44190169     50.55%    100.00% (Unspecified)
system.caches.L1Cache_Controller.S.Load::total     87424555                       (Unspecified)
system.caches.L1Cache_Controller.S.Ifetch |  1978840463     54.26%     54.26% |  1667858698     45.74%    100.00% (Unspecified)
system.caches.L1Cache_Controller.S.Ifetch::total   3646699161                       (Unspecified)
system.caches.L1Cache_Controller.S.Store |       16849     93.09%     93.09% |        1251      6.91%    100.00% (Unspecified)
system.caches.L1Cache_Controller.S.Store::total        18100                       (Unspecified)
system.caches.L1Cache_Controller.S.Inv   |       26582     38.37%     38.37% |       42694     61.63%    100.00% (Unspecified)
system.caches.L1Cache_Controller.S.Inv::total        69276                       (Unspecified)
system.caches.L1Cache_Controller.S.L1_Replacement |     8789097     49.90%     49.90% |     8823346     50.10%    100.00% (Unspecified)
system.caches.L1Cache_Controller.S.L1_Replacement::total     17612443                       (Unspecified)
system.caches.L1Cache_Controller.E.Load  |    30841075     56.82%     56.82% |    23441604     43.18%    100.00% (Unspecified)
system.caches.L1Cache_Controller.E.Load::total     54282679                       (Unspecified)
system.caches.L1Cache_Controller.E.Store |     1876291     92.22%     92.22% |      158294      7.78%    100.00% (Unspecified)
system.caches.L1Cache_Controller.E.Store::total      2034585                       (Unspecified)
system.caches.L1Cache_Controller.E.Inv   |         906      9.51%      9.51% |        8622     90.49%    100.00% (Unspecified)
system.caches.L1Cache_Controller.E.Inv::total         9528                       (Unspecified)
system.caches.L1Cache_Controller.E.L1_Replacement |     4238256     52.64%     52.64% |     3812693     47.36%    100.00% (Unspecified)
system.caches.L1Cache_Controller.E.L1_Replacement::total      8050949                       (Unspecified)
system.caches.L1Cache_Controller.E.Fwd_GETX |           2      0.27%      0.27% |         741     99.73%    100.00% (Unspecified)
system.caches.L1Cache_Controller.E.Fwd_GETX::total          743                       (Unspecified)
system.caches.L1Cache_Controller.E.Fwd_GETS |      136083     49.45%     49.45% |      139117     50.55%    100.00% (Unspecified)
system.caches.L1Cache_Controller.E.Fwd_GETS::total       275200                       (Unspecified)
system.caches.L1Cache_Controller.M.Load  |   301767605     56.11%     56.11% |   236041448     43.89%    100.00% (Unspecified)
system.caches.L1Cache_Controller.M.Load::total    537809053                       (Unspecified)
system.caches.L1Cache_Controller.M.Store |   180755942     53.86%     53.86% |   154825975     46.14%    100.00% (Unspecified)
system.caches.L1Cache_Controller.M.Store::total    335581917                       (Unspecified)
system.caches.L1Cache_Controller.M.Inv   |        1399     29.36%     29.36% |        3366     70.64%    100.00% (Unspecified)
system.caches.L1Cache_Controller.M.Inv::total         4765                       (Unspecified)
system.caches.L1Cache_Controller.M.L1_Replacement |     5234048     65.66%     65.66% |     2737869     34.34%    100.00% (Unspecified)
system.caches.L1Cache_Controller.M.L1_Replacement::total      7971917                       (Unspecified)
system.caches.L1Cache_Controller.M.Fwd_GETX |       10832     34.51%     34.51% |       20555     65.49%    100.00% (Unspecified)
system.caches.L1Cache_Controller.M.Fwd_GETX::total        31387                       (Unspecified)
system.caches.L1Cache_Controller.M.Fwd_GETS |       14746     68.83%     68.83% |        6677     31.17%    100.00% (Unspecified)
system.caches.L1Cache_Controller.M.Fwd_GETS::total        21423                       (Unspecified)
system.caches.L1Cache_Controller.IS.Inv  |           0      0.00%      0.00% |           4    100.00%    100.00% (Unspecified)
system.caches.L1Cache_Controller.IS.Inv::total            4                       (Unspecified)
system.caches.L1Cache_Controller.IS.Data_Exclusive |     6252279     60.27%     60.27% |     4121436     39.73%    100.00% (Unspecified)
system.caches.L1Cache_Controller.IS.Data_Exclusive::total     10373715                       (Unspecified)
system.caches.L1Cache_Controller.IS.DataS_fromL1 |      145795     49.15%     49.15% |      150825     50.85%    100.00% (Unspecified)
system.caches.L1Cache_Controller.IS.DataS_fromL1::total       296620                       (Unspecified)
system.caches.L1Cache_Controller.IS.Data_all_Acks |     8539439     49.89%     49.89% |     8575885     50.11%    100.00% (Unspecified)
system.caches.L1Cache_Controller.IS.Data_all_Acks::total     17115324                       (Unspecified)
system.caches.L1Cache_Controller.IM.Data |        3204     99.53%     99.53% |          15      0.47%    100.00% (Unspecified)
system.caches.L1Cache_Controller.IM.Data::total         3219                       (Unspecified)
system.caches.L1Cache_Controller.IM.Data_all_Acks |     3369239     56.34%     56.34% |     2610550     43.66%    100.00% (Unspecified)
system.caches.L1Cache_Controller.IM.Data_all_Acks::total      5979789                       (Unspecified)
system.caches.L1Cache_Controller.SM.Inv  |         293     52.70%     52.70% |         263     47.30%    100.00% (Unspecified)
system.caches.L1Cache_Controller.SM.Inv::total          556                       (Unspecified)
system.caches.L1Cache_Controller.SM.Ack  |       16556     94.37%     94.37% |         988      5.63%    100.00% (Unspecified)
system.caches.L1Cache_Controller.SM.Ack::total        17544                       (Unspecified)
system.caches.L1Cache_Controller.SM.Ack_all |       19760     95.17%     95.17% |        1003      4.83%    100.00% (Unspecified)
system.caches.L1Cache_Controller.SM.Ack_all::total        20763                       (Unspecified)
system.caches.L1Cache_Controller.IS_I.DataS_fromL1 |           0      0.00%      0.00% |           4    100.00%    100.00% (Unspecified)
system.caches.L1Cache_Controller.IS_I.DataS_fromL1::total            4                       (Unspecified)
system.caches.L1Cache_Controller.M_I.Fwd_GETS |           0      0.00%      0.00% |           1    100.00%    100.00% (Unspecified)
system.caches.L1Cache_Controller.M_I.Fwd_GETS::total            1                       (Unspecified)
system.caches.L1Cache_Controller.M_I.WB_Ack |     9472304     59.12%     59.12% |     6550561     40.88%    100.00% (Unspecified)
system.caches.L1Cache_Controller.M_I.WB_Ack::total     16022865                       (Unspecified)
system.caches.L1Cache_Controller.SINK_WB_ACK.WB_Ack |           0      0.00%      0.00% |           1    100.00%    100.00% (Unspecified)
system.caches.L1Cache_Controller.SINK_WB_ACK.WB_Ack::total            1                       (Unspecified)
system.caches.Directory_Controller.Fetch      9691147      0.00%      0.00% (Unspecified)
system.caches.Directory_Controller.Data       5635999      0.00%      0.00% (Unspecified)
system.caches.Directory_Controller.Memory_Data      9691147      0.00%      0.00% (Unspecified)
system.caches.Directory_Controller.Memory_Ack      5635999      0.00%      0.00% (Unspecified)
system.caches.Directory_Controller.CleanReplacement      3924076      0.00%      0.00% (Unspecified)
system.caches.Directory_Controller.I.Fetch      9691147      0.00%      0.00% (Unspecified)
system.caches.Directory_Controller.M.Data      5635999      0.00%      0.00% (Unspecified)
system.caches.Directory_Controller.M.CleanReplacement      3924076      0.00%      0.00% (Unspecified)
system.caches.Directory_Controller.IM.Memory_Data      9691147      0.00%      0.00% (Unspecified)
system.caches.Directory_Controller.MI.Memory_Ack      5635999      0.00%      0.00% (Unspecified)
system.caches.L2Cache_Controller.L1_GET_INSTR |       15990      8.17%      8.17% |       32050     16.38%     24.55% |       28195     14.41%     38.95% |        9247      4.72%     43.68% |       19315      9.87%     53.55% |       31187     15.94%     69.48% |       33086     16.91%     86.39% |       26640     13.61%    100.00% (Unspecified)
system.caches.L2Cache_Controller.L1_GET_INSTR::total       195710                       (Unspecified)
system.caches.L2Cache_Controller.L1_GETS |     3467999     12.57%     12.57% |     3599695     13.04%     25.61% |     3434281     12.44%     38.06% |     3457929     12.53%     50.59% |     3368248     12.21%     62.79% |     3449242     12.50%     75.29% |     3421679     12.40%     87.69% |     3396772     12.31%    100.00% (Unspecified)
system.caches.L2Cache_Controller.L1_GETS::total     27595845                       (Unspecified)
system.caches.L2Cache_Controller.L1_GETX |      752240     12.57%     12.57% |      746053     12.47%     25.04% |      741238     12.39%     37.43% |      746701     12.48%     49.91% |      744182     12.44%     62.35% |      756003     12.64%     74.98% |      749727     12.53%     87.51% |      746999     12.49%    100.00% (Unspecified)
system.caches.L2Cache_Controller.L1_GETX::total      5983143                       (Unspecified)
system.caches.L2Cache_Controller.L1_UPGRADE |        1765      7.67%      7.67% |        2353     10.23%     17.90% |         601      2.61%     20.51% |         580      2.52%     23.03% |         654      2.84%     25.87% |        2686     11.67%     37.55% |       13685     59.48%     97.03% |         684      2.97%    100.00% (Unspecified)
system.caches.L2Cache_Controller.L1_UPGRADE::total        23008                       (Unspecified)
system.caches.L2Cache_Controller.L1_PUTX |     2004915     12.51%     12.51% |     2018253     12.60%     25.11% |     1984946     12.39%     37.50% |     2003294     12.50%     50.00% |     1998449     12.47%     62.47% |     2011369     12.55%     75.03% |     1998121     12.47%     87.50% |     2003520     12.50%    100.00% (Unspecified)
system.caches.L2Cache_Controller.L1_PUTX::total     16022867                       (Unspecified)
system.caches.L2Cache_Controller.L2_Replacement |      704322     12.50%     12.50% |      704181     12.50%     25.01% |      704193     12.50%     37.51% |      704252     12.50%     50.01% |      703999     12.50%     62.51% |      704207     12.50%     75.01% |      703785     12.49%     87.51% |      703763     12.49%    100.00% (Unspecified)
system.caches.L2Cache_Controller.L2_Replacement::total      5632702                       (Unspecified)
system.caches.L2Cache_Controller.L2_Replacement_clean |      491331     12.51%     12.51% |      490734     12.50%     25.01% |      490861     12.50%     37.50% |      490647     12.49%     50.00% |      490956     12.50%     62.50% |      490136     12.48%     74.98% |      490711     12.49%     87.47% |      491997     12.53%    100.00% (Unspecified)
system.caches.L2Cache_Controller.L2_Replacement_clean::total      3927373                       (Unspecified)
system.caches.L2Cache_Controller.Mem_Data |     1212037     12.51%     12.51% |     1211299     12.50%     25.01% |     1211438     12.50%     37.51% |     1211283     12.50%     50.00% |     1211339     12.50%     62.50% |     1210727     12.49%     75.00% |     1210880     12.49%     87.49% |     1212144     12.51%    100.00% (Unspecified)
system.caches.L2Cache_Controller.Mem_Data::total      9691147                       (Unspecified)
system.caches.L2Cache_Controller.Mem_Ack |     1195653     12.51%     12.51% |     1194915     12.50%     25.01% |     1195054     12.50%     37.51% |     1194899     12.50%     50.01% |     1194955     12.50%     62.50% |     1194343     12.49%     75.00% |     1194496     12.49%     87.49% |     1195760     12.51%    100.00% (Unspecified)
system.caches.L2Cache_Controller.Mem_Ack::total      9560075                       (Unspecified)
system.caches.L2Cache_Controller.WB_Data |        4578     17.48%     17.48% |        2301      8.79%     26.27% |        1226      4.68%     30.95% |        1385      5.29%     36.24% |        1423      5.43%     41.67% |        2921     11.15%     52.83% |       10850     41.43%     94.26% |        1504      5.74%    100.00% (Unspecified)
system.caches.L2Cache_Controller.WB_Data::total        26188                       (Unspecified)
system.caches.L2Cache_Controller.WB_Data_clean |       34386     12.49%     12.49% |       34465     12.52%     25.02% |       34406     12.50%     37.52% |       34116     12.40%     49.92% |       34382     12.49%     62.41% |       34627     12.58%     74.99% |       34544     12.55%     87.55% |       34275     12.45%    100.00% (Unspecified)
system.caches.L2Cache_Controller.WB_Data_clean::total       275201                       (Unspecified)
system.caches.L2Cache_Controller.Ack     |       33167     12.61%     12.61% |       32228     12.25%     24.86% |       32881     12.50%     37.35% |       32619     12.40%     49.75% |       33157     12.60%     62.35% |       33109     12.58%     74.94% |       33191     12.62%     87.55% |       32746     12.45%    100.00% (Unspecified)
system.caches.L2Cache_Controller.Ack::total       263098                       (Unspecified)
system.caches.L2Cache_Controller.Ack_all |       36136     12.65%     12.65% |       35074     12.28%     24.94% |       35655     12.49%     37.42% |       35482     12.43%     49.85% |       35815     12.54%     62.39% |       35801     12.54%     74.93% |       35859     12.56%     87.49% |       35727     12.51%    100.00% (Unspecified)
system.caches.L2Cache_Controller.Ack_all::total       285549                       (Unspecified)
system.caches.L2Cache_Controller.Unblock |       38265     12.90%     12.90% |       36260     12.22%     25.12% |       35174     11.86%     36.98% |       34871     11.76%     48.74% |       35268     11.89%     60.63% |       36837     12.42%     73.05% |       44827     15.11%     88.16% |       35122     11.84%    100.00% (Unspecified)
system.caches.L2Cache_Controller.Unblock::total       296624                       (Unspecified)
system.caches.L2Cache_Controller.Exclusive_Unblock |     2050827     12.52%     12.52% |     2061101     12.59%     25.11% |     2026614     12.38%     37.49% |     2044936     12.49%     49.98% |     2040243     12.46%     62.44% |     2055718     12.55%     74.99% |     2049533     12.52%     87.51% |     2045295     12.49%    100.00% (Unspecified)
system.caches.L2Cache_Controller.Exclusive_Unblock::total     16374267                       (Unspecified)
system.caches.L2Cache_Controller.NP.L1_GET_INSTR |        4449     13.30%     13.30% |        4183     12.51%     25.81% |        4053     12.12%     37.93% |        4137     12.37%     50.30% |        4249     12.70%     63.00% |        4001     11.96%     74.97% |        4091     12.23%     87.20% |        4281     12.80%    100.00% (Unspecified)
system.caches.L2Cache_Controller.NP.L1_GET_INSTR::total        33444                       (Unspecified)
system.caches.L2Cache_Controller.NP.L1_GETS |      597673     12.50%     12.50% |      597469     12.50%     25.00% |      597702     12.50%     37.50% |      597368     12.50%     50.00% |      597540     12.50%     62.50% |      597052     12.49%     74.99% |      597329     12.49%     87.48% |      598436     12.52%    100.00% (Unspecified)
system.caches.L2Cache_Controller.NP.L1_GETS::total      4780569                       (Unspecified)
system.caches.L2Cache_Controller.NP.L1_GETX |      609915     12.51%     12.51% |      609647     12.50%     25.01% |      609683     12.50%     37.51% |      609778     12.50%     50.01% |      609550     12.50%     62.51% |      609674     12.50%     75.01% |      609460     12.50%     87.50% |      609427     12.50%    100.00% (Unspecified)
system.caches.L2Cache_Controller.NP.L1_GETX::total      4877134                       (Unspecified)
system.caches.L2Cache_Controller.SS.L1_GET_INSTR |       11051      6.96%      6.96% |       27405     17.26%     24.22% |       23723     14.94%     39.17% |        4660      2.94%     42.10% |       14591      9.19%     51.29% |       26744     16.85%     68.14% |       28637     18.04%     86.18% |       21939     13.82%    100.00% (Unspecified)
system.caches.L2Cache_Controller.SS.L1_GET_INSTR::total       158750                       (Unspecified)
system.caches.L2Cache_Controller.SS.L1_GETS |     2132825     12.61%     12.61% |     2250671     13.30%     25.91% |     2114265     12.50%     38.40% |     2125368     12.56%     50.97% |     2037527     12.04%     63.01% |     2114484     12.50%     75.51% |     2080142     12.29%     87.80% |     2063996     12.20%    100.00% (Unspecified)
system.caches.L2Cache_Controller.SS.L1_GETS::total     16919278                       (Unspecified)
system.caches.L2Cache_Controller.SS.L1_GETX |        1943     60.36%     60.36% |           0      0.00%     60.36% |           1      0.03%     60.39% |           1      0.03%     60.42% |          61      1.89%     62.32% |           0      0.00%     62.32% |        1213     37.68%    100.00% |           0      0.00%    100.00% (Unspecified)
system.caches.L2Cache_Controller.SS.L1_GETX::total         3219                       (Unspecified)
system.caches.L2Cache_Controller.SS.L1_UPGRADE |        1764     10.05%     10.05% |        2352     13.41%     23.46% |         601      3.43%     26.89% |         580      3.31%     30.19% |         654      3.73%     33.92% |        2029     11.57%     45.49% |        8880     50.62%     96.10% |         684      3.90%    100.00% (Unspecified)
system.caches.L2Cache_Controller.SS.L1_UPGRADE::total        17544                       (Unspecified)
system.caches.L2Cache_Controller.SS.L1_PUTX |           0      0.00%      0.00% |           0      0.00%      0.00% |           0      0.00%      0.00% |           0      0.00%      0.00% |           0      0.00%      0.00% |           0      0.00%      0.00% |           0      0.00%      0.00% |           1    100.00%    100.00% (Unspecified)
system.caches.L2Cache_Controller.SS.L1_PUTX::total            1                       (Unspecified)
system.caches.L2Cache_Controller.SS.L2_Replacement |         181     12.19%     12.19% |         199     13.40%     25.59% |         187     12.59%     38.18% |         181     12.19%     50.37% |         178     11.99%     62.36% |         202     13.60%     75.96% |         191     12.86%     88.82% |         166     11.18%    100.00% (Unspecified)
system.caches.L2Cache_Controller.SS.L2_Replacement::total         1485                       (Unspecified)
system.caches.L2Cache_Controller.SS.L2_Replacement_clean |       34695     12.64%     12.64% |       33667     12.26%     24.90% |       34320     12.50%     37.40% |       34084     12.42%     49.82% |       34480     12.56%     62.38% |       34400     12.53%     74.91% |       34480     12.56%     87.47% |       34410     12.53%    100.00% (Unspecified)
system.caches.L2Cache_Controller.SS.L2_Replacement_clean::total       274536                       (Unspecified)
system.caches.L2Cache_Controller.M.L1_GETS |      699191     12.50%     12.50% |      715258     12.79%     25.29% |      687105     12.28%     37.57% |      700305     12.52%     50.09% |      697890     12.48%     62.57% |      700778     12.53%     75.10% |      693620     12.40%     87.50% |      699198     12.50%    100.00% (Unspecified)
system.caches.L2Cache_Controller.M.L1_GETS::total      5593345                       (Unspecified)
system.caches.L2Cache_Controller.M.L1_GETX |      135729     12.68%     12.68% |      132557     12.38%     25.06% |      127712     11.93%     36.99% |      133039     12.43%     49.42% |      130794     12.22%     61.64% |      141652     13.23%     74.87% |      135258     12.63%     87.50% |      133784     12.50%    100.00% (Unspecified)
system.caches.L2Cache_Controller.M.L1_GETX::total      1070525                       (Unspecified)
system.caches.L2Cache_Controller.M.L2_Replacement |      703926     12.50%     12.50% |      703849     12.50%     25.01% |      703890     12.50%     37.51% |      703869     12.50%     50.01% |      703627     12.50%     62.51% |      703727     12.50%     75.01% |      703395     12.49%     87.51% |      703398     12.49%    100.00% (Unspecified)
system.caches.L2Cache_Controller.M.L2_Replacement::total      5629681                       (Unspecified)
system.caches.L2Cache_Controller.M.L2_Replacement_clean |      454892     12.50%     12.50% |      455486     12.51%     25.01% |      455051     12.50%     37.51% |      454918     12.50%     50.01% |      454976     12.50%     62.51% |      454104     12.48%     74.98% |      454675     12.49%     87.47% |      455978     12.53%    100.00% (Unspecified)
system.caches.L2Cache_Controller.M.L2_Replacement_clean::total      3640080                       (Unspecified)
system.caches.L2Cache_Controller.MT.L1_GETS |       38265     12.90%     12.90% |       36260     12.22%     25.12% |       35174     11.86%     36.98% |       34871     11.76%     48.74% |       35268     11.89%     60.63% |       36837     12.42%     73.05% |       44827     15.11%     88.16% |       35122     11.84%    100.00% (Unspecified)
system.caches.L2Cache_Controller.MT.L1_GETS::total       296624                       (Unspecified)
system.caches.L2Cache_Controller.MT.L1_GETX |        4652     14.48%     14.48% |        3847     11.97%     26.45% |        3841     11.95%     38.41% |        3881     12.08%     50.49% |        3776     11.75%     62.24% |        4554     14.17%     76.41% |        3793     11.81%     88.22% |        3786     11.78%    100.00% (Unspecified)
system.caches.L2Cache_Controller.MT.L1_GETX::total        32130                       (Unspecified)
system.caches.L2Cache_Controller.MT.L1_PUTX |     2004915     12.51%     12.51% |     2018253     12.60%     25.11% |     1984946     12.39%     37.50% |     2003294     12.50%     50.00% |     1998449     12.47%     62.47% |     2011369     12.55%     75.03% |     1998121     12.47%     87.50% |     2003518     12.50%    100.00% (Unspecified)
system.caches.L2Cache_Controller.MT.L1_PUTX::total     16022865                       (Unspecified)
system.caches.L2Cache_Controller.MT.L2_Replacement |         215     14.00%     14.00% |         133      8.66%     22.66% |         116      7.55%     30.21% |         202     13.15%     43.36% |         194     12.63%     55.99% |         278     18.10%     74.09% |         199     12.96%     87.04% |         199     12.96%    100.00% (Unspecified)
system.caches.L2Cache_Controller.MT.L2_Replacement::total         1536                       (Unspecified)
system.caches.L2Cache_Controller.MT.L2_Replacement_clean |        1744     13.67%     13.67% |        1581     12.39%     26.06% |        1490     11.68%     37.74% |        1645     12.89%     50.64% |        1500     11.76%     62.40% |        1632     12.79%     75.19% |        1556     12.20%     87.39% |        1609     12.61%    100.00% (Unspecified)
system.caches.L2Cache_Controller.MT.L2_Replacement_clean::total        12757                       (Unspecified)
system.caches.L2Cache_Controller.M_I.L1_GET_INSTR |           3      4.84%      4.84% |           9     14.52%     19.35% |          28     45.16%     64.52% |          18     29.03%     93.55% |           1      1.61%     95.16% |           0      0.00%     95.16% |           2      3.23%     98.39% |           1      1.61%    100.00% (Unspecified)
system.caches.L2Cache_Controller.M_I.L1_GET_INSTR::total           62                       (Unspecified)
system.caches.L2Cache_Controller.M_I.L1_GETS |           3     75.00%     75.00% |           0      0.00%     75.00% |           0      0.00%     75.00% |           0      0.00%     75.00% |           1     25.00%    100.00% |           0      0.00%    100.00% |           0      0.00%    100.00% |           0      0.00%    100.00% (Unspecified)
system.caches.L2Cache_Controller.M_I.L1_GETS::total            4                       (Unspecified)
system.caches.L2Cache_Controller.M_I.L1_GETX |           0      0.00%      0.00% |           0      0.00%      0.00% |           0      0.00%      0.00% |           1    100.00%    100.00% |           0      0.00%    100.00% |           0      0.00%    100.00% |           0      0.00%    100.00% |           0      0.00%    100.00% (Unspecified)
system.caches.L2Cache_Controller.M_I.L1_GETX::total            1                       (Unspecified)
system.caches.L2Cache_Controller.M_I.Mem_Ack |     1195653     12.51%     12.51% |     1194915     12.50%     25.01% |     1195054     12.50%     37.51% |     1194899     12.50%     50.01% |     1194955     12.50%     62.50% |     1194343     12.49%     75.00% |     1194496     12.49%     87.49% |     1195760     12.51%    100.00% (Unspecified)
system.caches.L2Cache_Controller.M_I.Mem_Ack::total      9560075                       (Unspecified)
system.caches.L2Cache_Controller.MT_I.WB_Data |         198     13.49%     13.49% |         125      8.51%     22.00% |         107      7.29%     29.29% |         198     13.49%     42.78% |         180     12.26%     55.04% |         273     18.60%     73.64% |         190     12.94%     86.58% |         197     13.42%    100.00% (Unspecified)
system.caches.L2Cache_Controller.MT_I.WB_Data::total         1468                       (Unspecified)
system.caches.L2Cache_Controller.MT_I.Ack_all |          17     25.00%     25.00% |           8     11.76%     36.76% |           9     13.24%     50.00% |           4      5.88%     55.88% |          14     20.59%     76.47% |           5      7.35%     83.82% |           9     13.24%     97.06% |           2      2.94%    100.00% (Unspecified)
system.caches.L2Cache_Controller.MT_I.Ack_all::total           68                       (Unspecified)
system.caches.L2Cache_Controller.MCT_I.WB_Data |         501     15.20%     15.20% |         381     11.56%     26.75% |         351     10.65%     37.40% |         432     13.10%     50.50% |         357     10.83%     61.33% |         438     13.28%     74.61% |         377     11.43%     86.05% |         460     13.95%    100.00% (Unspecified)
system.caches.L2Cache_Controller.MCT_I.WB_Data::total         3297                       (Unspecified)
system.caches.L2Cache_Controller.MCT_I.Ack_all |        1243     13.14%     13.14% |        1200     12.68%     25.82% |        1139     12.04%     37.86% |        1213     12.82%     50.69% |        1143     12.08%     62.77% |        1194     12.62%     75.39% |        1179     12.46%     87.85% |        1149     12.15%    100.00% (Unspecified)
system.caches.L2Cache_Controller.MCT_I.Ack_all::total         9460                       (Unspecified)
system.caches.L2Cache_Controller.I_I.Ack |       32986     12.61%     12.61% |       32029     12.24%     24.85% |       32694     12.50%     37.35% |       32438     12.40%     49.75% |       32979     12.61%     62.35% |       32907     12.58%     74.93% |       33000     12.61%     87.55% |       32580     12.45%    100.00% (Unspecified)
system.caches.L2Cache_Controller.I_I.Ack::total       261613                       (Unspecified)
system.caches.L2Cache_Controller.I_I.Ack_all |       34695     12.64%     12.64% |       33667     12.26%     24.90% |       34320     12.50%     37.40% |       34084     12.42%     49.82% |       34480     12.56%     62.38% |       34400     12.53%     74.91% |       34480     12.56%     87.47% |       34410     12.53%    100.00% (Unspecified)
system.caches.L2Cache_Controller.I_I.Ack_all::total       274536                       (Unspecified)
system.caches.L2Cache_Controller.S_I.Ack |         181     12.19%     12.19% |         199     13.40%     25.59% |         187     12.59%     38.18% |         181     12.19%     50.37% |         178     11.99%     62.36% |         202     13.60%     75.96% |         191     12.86%     88.82% |         166     11.18%    100.00% (Unspecified)
system.caches.L2Cache_Controller.S_I.Ack::total         1485                       (Unspecified)
system.caches.L2Cache_Controller.S_I.Ack_all |         181     12.19%     12.19% |         199     13.40%     25.59% |         187     12.59%     38.18% |         181     12.19%     50.37% |         178     11.99%     62.36% |         202     13.60%     75.96% |         191     12.86%     88.82% |         166     11.18%    100.00% (Unspecified)
system.caches.L2Cache_Controller.S_I.Ack_all::total         1485                       (Unspecified)
system.caches.L2Cache_Controller.ISS.L1_GETS |          40     20.10%     20.10% |          29     14.57%     34.67% |          31     15.58%     50.25% |          16      8.04%     58.29% |          22     11.06%     69.35% |          21     10.55%     79.90% |          20     10.05%     89.95% |          20     10.05%    100.00% (Unspecified)
system.caches.L2Cache_Controller.ISS.L1_GETS::total          199                       (Unspecified)
system.caches.L2Cache_Controller.ISS.L1_GETX |           0      0.00%      0.00% |           0      0.00%      0.00% |           0      0.00%      0.00% |           0      0.00%      0.00% |           0      0.00%      0.00% |           0      0.00%      0.00% |           1    100.00%    100.00% |           0      0.00%    100.00% (Unspecified)
system.caches.L2Cache_Controller.ISS.L1_GETX::total            1                       (Unspecified)
system.caches.L2Cache_Controller.ISS.Mem_Data |      597633     12.50%     12.50% |      597440     12.50%     25.00% |      597671     12.50%     37.50% |      597352     12.50%     50.00% |      597518     12.50%     62.50% |      597031     12.49%     74.99% |      597309     12.50%     87.48% |      598416     12.52%    100.00% (Unspecified)
system.caches.L2Cache_Controller.ISS.Mem_Data::total      4780370                       (Unspecified)
system.caches.L2Cache_Controller.IS.L1_GET_INSTR |         487     14.10%     14.10% |         453     13.12%     27.21% |         391     11.32%     38.54% |         432     12.51%     51.04% |         474     13.72%     64.77% |         442     12.80%     77.56% |         356     10.31%     87.87% |         419     12.13%    100.00% (Unspecified)
system.caches.L2Cache_Controller.IS.L1_GET_INSTR::total         3454                       (Unspecified)
system.caches.L2Cache_Controller.IS.Mem_Data |        4489     13.34%     13.34% |        4212     12.52%     25.86% |        4084     12.14%     38.00% |        4153     12.34%     50.35% |        4271     12.70%     63.04% |        4022     11.95%     75.00% |        4111     12.22%     87.22% |        4301     12.78%    100.00% (Unspecified)
system.caches.L2Cache_Controller.IS.Mem_Data::total        33643                       (Unspecified)
system.caches.L2Cache_Controller.IM.L1_GETX |           1      9.09%      9.09% |           1      9.09%     18.18% |           1      9.09%     27.27% |           1      9.09%     36.36% |           1      9.09%     45.45% |           2     18.18%     63.64% |           2     18.18%     81.82% |           2     18.18%    100.00% (Unspecified)
system.caches.L2Cache_Controller.IM.L1_GETX::total           11                       (Unspecified)
system.caches.L2Cache_Controller.IM.Mem_Data |      609915     12.51%     12.51% |      609647     12.50%     25.01% |      609683     12.50%     37.51% |      609778     12.50%     50.01% |      609550     12.50%     62.51% |      609674     12.50%     75.01% |      609460     12.50%     87.50% |      609427     12.50%    100.00% (Unspecified)
system.caches.L2Cache_Controller.IM.Mem_Data::total      4877134                       (Unspecified)
system.caches.L2Cache_Controller.SS_MB.L1_GETS |           2      0.03%      0.03% |           0      0.00%      0.03% |           3      0.05%      0.09% |           1      0.02%      0.10% |           0      0.00%      0.10% |          69      1.19%      1.29% |        5741     98.71%    100.00% |           0      0.00%    100.00% (Unspecified)
system.caches.L2Cache_Controller.SS_MB.L1_GETS::total         5816                       (Unspecified)
system.caches.L2Cache_Controller.SS_MB.L1_GETX |           0      0.00%      0.00% |           0      0.00%      0.00% |           0      0.00%      0.00% |           0      0.00%      0.00% |           0      0.00%      0.00% |         121    100.00%    100.00% |           0      0.00%    100.00% |           0      0.00%    100.00% (Unspecified)
system.caches.L2Cache_Controller.SS_MB.L1_GETX::total          121                       (Unspecified)
system.caches.L2Cache_Controller.SS_MB.L1_UPGRADE |           1      0.18%      0.18% |           1      0.18%      0.36% |           0      0.00%      0.36% |           0      0.00%      0.36% |           0      0.00%      0.36% |         553     99.46%     99.82% |           1      0.18%    100.00% |           0      0.00%    100.00% (Unspecified)
system.caches.L2Cache_Controller.SS_MB.L1_UPGRADE::total          556                       (Unspecified)
system.caches.L2Cache_Controller.SS_MB.Exclusive_Unblock |        3707     17.85%     17.85% |        2352     11.33%     29.18% |         602      2.90%     32.08% |         581      2.80%     34.88% |         715      3.44%     38.32% |        2029      9.77%     48.10% |       10093     48.61%     96.71% |         684      3.29%    100.00% (Unspecified)
system.caches.L2Cache_Controller.SS_MB.Exclusive_Unblock::total        20763                       (Unspecified)
system.caches.L2Cache_Controller.MT_MB.L1_GETS |           0      0.00%      0.00% |           8     80.00%     80.00% |           1     10.00%     90.00% |           0      0.00%     90.00% |           0      0.00%     90.00% |           1     10.00%    100.00% |           0      0.00%    100.00% |           0      0.00%    100.00% (Unspecified)
system.caches.L2Cache_Controller.MT_MB.L1_GETS::total           10                       (Unspecified)
system.caches.L2Cache_Controller.MT_MB.L1_GETX |           0      0.00%      0.00% |           1    100.00%    100.00% |           0      0.00%    100.00% |           0      0.00%    100.00% |           0      0.00%    100.00% |           0      0.00%    100.00% |           0      0.00%    100.00% |           0      0.00%    100.00% (Unspecified)
system.caches.L2Cache_Controller.MT_MB.L1_GETX::total            1                       (Unspecified)
system.caches.L2Cache_Controller.MT_MB.Exclusive_Unblock |     2047120     12.52%     12.52% |     2058749     12.59%     25.11% |     2026012     12.39%     37.50% |     2044355     12.50%     50.00% |     2039528     12.47%     62.47% |     2053689     12.56%     75.03% |     2039440     12.47%     87.50% |     2044611     12.50%    100.00% (Unspecified)
system.caches.L2Cache_Controller.MT_MB.Exclusive_Unblock::total     16353504                       (Unspecified)
system.caches.L2Cache_Controller.MT_IIB.L1_PUTX |           0      0.00%      0.00% |           0      0.00%      0.00% |           0      0.00%      0.00% |           0      0.00%      0.00% |           0      0.00%      0.00% |           0      0.00%      0.00% |           0      0.00%      0.00% |           1    100.00%    100.00% (Unspecified)
system.caches.L2Cache_Controller.MT_IIB.L1_PUTX::total            1                       (Unspecified)
system.caches.L2Cache_Controller.MT_IIB.WB_Data |        3879     18.11%     18.11% |        1795      8.38%     26.49% |         768      3.58%     30.07% |         755      3.52%     33.59% |         886      4.14%     37.73% |        2210     10.32%     48.05% |       10283     48.00%     96.05% |         847      3.95%    100.00% (Unspecified)
system.caches.L2Cache_Controller.MT_IIB.WB_Data::total        21423                       (Unspecified)
system.caches.L2Cache_Controller.MT_IIB.WB_Data_clean |       34386     12.49%     12.49% |       34465     12.52%     25.02% |       34406     12.50%     37.52% |       34116     12.40%     49.92% |       34382     12.49%     62.41% |       34627     12.58%     74.99% |       34544     12.55%     87.55% |       34275     12.45%    100.00% (Unspecified)
system.caches.L2Cache_Controller.MT_IIB.WB_Data_clean::total       275201                       (Unspecified)
system.caches.L2Cache_Controller.MT_SB.L1_UPGRADE |           0      0.00%      0.00% |           0      0.00%      0.00% |           0      0.00%      0.00% |           0      0.00%      0.00% |           0      0.00%      0.00% |         104      2.12%      2.12% |        4804     97.88%    100.00% |           0      0.00%    100.00% (Unspecified)
system.caches.L2Cache_Controller.MT_SB.L1_UPGRADE::total         4908                       (Unspecified)
[...]
system.timingCpu0.exec_context.thread_0.statExecutedInstType::IprAccess            0      0.00%    100.00% # Class of executed instruction. (Count)
system.timingCpu0.exec_context.thread_0.statExecutedInstType::InstPrefetch            0      0.00%    100.00% # Class of executed instruction. (Count)
system.timingCpu0.exec_context.thread_0.statExecutedInstType::total   2600553034                       # Class of executed instruction. (Count)
system.timingCpu0.mmu.dtb.rdAccesses        374677630                       # TLB accesses on read requests (Count)
system.timingCpu0.mmu.dtb.wrAccesses        185528179                       # TLB accesses on write requests (Count)
system.timingCpu0.mmu.dtb.rdMisses            5350194                       # TLB misses on read requests (Count)
system.timingCpu0.mmu.dtb.wrMisses             250707                       # TLB misses on write requests (Count)
system.timingCpu0.mmu.dtb.walker.power_state.pwrStateResidencyTicks::UNDEFINED 156319320182500                       # Cumulative time (in ticks) in various power states (Tick)
system.timingCpu0.mmu.itb.rdAccesses                0                       # TLB accesses on read requests (Count)
system.timingCpu0.mmu.itb.wrAccesses       1978970962                       # TLB accesses on write requests (Count)
system.timingCpu0.mmu.itb.rdMisses                  0                       # TLB misses on read requests (Count)
system.timingCpu0.mmu.itb.wrMisses               7619                       # TLB misses on write requests (Count)
system.timingCpu0.mmu.itb.walker.power_state.pwrStateResidencyTicks::UNDEFINED 156319320182500                       # Cumulative time (in ticks) in various power states (Tick)
system.timingCpu0.power_state.numTransitions           30                       # Number of power state transitions (Count)
system.timingCpu0.power_state.ticksClkGated::samples           15                       # Distribution of time spent in the clock gated state (Tick)
system.timingCpu0.power_state.ticksClkGated::mean    952560550                       # Distribution of time spent in the clock gated state (Tick)
system.timingCpu0.power_state.ticksClkGated::stdev 139867584.481563                       # Distribution of time spent in the clock gated state (Tick)
system.timingCpu0.power_state.ticksClkGated::1000-5e+10           15    100.00%    100.00% # Distribution of time spent in the clock gated state (Tick)
system.timingCpu0.power_state.ticksClkGated::min_value    460098250                       # Distribution of time spent in the clock gated state (Tick)
system.timingCpu0.power_state.ticksClkGated::max_value    997852750                       # Distribution of time spent in the clock gated state (Tick)
system.timingCpu0.power_state.ticksClkGated::total           15                       # Distribution of time spent in the clock gated state (Tick)
system.timingCpu0.power_state.pwrStateResidencyTicks::ON   1905761250                       # Cumulative time (in ticks) in various power states (Tick)
system.timingCpu0.power_state.pwrStateResidencyTicks::CLK_GATED  14288408250                       # Cumulative time (in ticks) in various power states (Tick)
system.timingCpu0.power_state.pwrStateResidencyTicks::OFF 156303126013000                       # Cumulative time (in ticks) in various power states (Tick)
system.timingCpu0.thread_0.numInsts                 0                       # Number of Instructions committed (Count)
system.timingCpu0.thread_0.numOps                   0                       # Number of Ops committed (Count)
system.timingCpu0.thread_0.numMemRefs               0                       # Number of Memory References (Count)
system.timingCpu1.numCycles                8000000000                       # Number of cpu cycles simulated (Cycle)
system.timingCpu1.numWorkItemsStarted               0                       # Number of work items this cpu started (Count)
system.timingCpu1.numWorkItemsCompleted             0                       # Number of work items this cpu completed (Count)
system.timingCpu1.exec_context.thread_0.numInsts   1335430464                       # Number of instructions committed (Count)
system.timingCpu1.exec_context.thread_0.numOps   2157367671                       # Number of ops (including micro ops) committed (Count)
system.timingCpu1.exec_context.thread_0.numIntAluAccesses   2140979627                       # Number of integer alu accesses (Count)
system.timingCpu1.exec_context.thread_0.numFpAluAccesses      3554444                       # Number of float alu accesses (Count)
system.timingCpu1.exec_context.thread_0.numVecAluAccesses            0                       # Number of vector alu accesses (Count)
system.timingCpu1.exec_context.thread_0.numCallsReturns      4917104                       # Number of times a function call or return occured (Count)
system.timingCpu1.exec_context.thread_0.numCondCtrlInsts    235541744                       # Number of instructions that are conditional controls (Count)
system.timingCpu1.exec_context.thread_0.numIntInsts   2140979627                       # Number of integer instructions (Count)
system.timingCpu1.exec_context.thread_0.numFpInsts      3554444                       # Number of float instructions (Count)
system.timingCpu1.exec_context.thread_0.numVecInsts            0                       # Number of vector instructions (Count)
system.timingCpu1.exec_context.thread_0.numIntRegReads   2629056954                       # Number of times the integer registers were read (Count)
system.timingCpu1.exec_context.thread_0.numIntRegWrites   1453223321                       # Number of times the integer registers were written (Count)
system.timingCpu1.exec_context.thread_0.numFpRegReads      3874941                       # Number of times the floating registers were read (Count)
system.timingCpu1.exec_context.thread_0.numFpRegWrites      2301431                       # Number of times the floating registers were written (Count)
system.timingCpu1.exec_context.thread_0.numVecRegReads            0                       # Number of times the vector registers were read (Count)
system.timingCpu1.exec_context.thread_0.numVecRegWrites            0                       # Number of times the vector registers were written (Count)
system.timingCpu1.exec_context.thread_0.numVecPredRegReads            0                       # Number of times the predicate registers were read (Count)
system.timingCpu1.exec_context.thread_0.numVecPredRegWrites            0                       # Number of times the predicate registers were written (Count)
system.timingCpu1.exec_context.thread_0.numCCRegReads   1203894701                       # Number of times the CC registers were read (Count)
system.timingCpu1.exec_context.thread_0.numCCRegWrites    776876784                       # Number of times the CC registers were written (Count)
system.timingCpu1.exec_context.thread_0.numMiscRegReads   1041796622                       # Number of times the Misc registers were read (Count)
system.timingCpu1.exec_context.thread_0.numMiscRegWrites        76194                       # Number of times the Misc registers were written (Count)
system.timingCpu1.exec_context.thread_0.numMemRefs    452336744                       # Number of memory refs (Count)
system.timingCpu1.exec_context.thread_0.numLoadInsts    295459935                       # Number of load instructions (Count)
system.timingCpu1.exec_context.thread_0.numStoreInsts    156876809                       # Number of store instructions (Count)
system.timingCpu1.exec_context.thread_0.numIdleCycles 1419537163.999291                       # Number of idle cycles (Cycle)
system.timingCpu1.exec_context.thread_0.numBusyCycles 6580462836.000710                       # Number of busy cycles (Cycle)
system.timingCpu1.exec_context.thread_0.notIdleFraction     0.822558                       # Percentage of non-idle cycles (Ratio)
system.timingCpu1.exec_context.thread_0.idleFraction     0.177442                       # Percentage of idle cycles (Ratio)
system.timingCpu1.exec_context.thread_0.numBranches    296162822                       # Number of branches fetched (Count)
system.timingCpu1.exec_context.thread_0.statExecutedInstType::No_OpClass     12721538      0.59%      0.59% # Class of executed instruction. (Count)
system.timingCpu1.exec_context.thread_0.statExecutedInstType::IntAlu   1691092573     78.39%     78.98% # Class of executed instruction. (Count)
system.timingCpu1.exec_context.thread_0.statExecutedInstType::IntMult        82578      0.00%     78.98% # Class of executed instruction. (Count)
system.timingCpu1.exec_context.thread_0.statExecutedInstType::IntDiv        85554      0.00%     78.98% # Class of executed instruction. (Count)
system.timingCpu1.exec_context.thread_0.statExecutedInstType::FloatAdd           23      0.00%     78.98% # Class of executed instruction. (Count)
system.timingCpu1.exec_context.thread_0.statExecutedInstType::FloatCmp            0      0.00%     78.98% # Class of executed instruction. (Count)
system.timingCpu1.exec_context.thread_0.statExecutedInstType::FloatCvt          144      0.00%     78.98% # Class of executed instruction. (Count)
system.timingCpu1.exec_context.thread_0.statExecutedInstType::FloatMult            0      0.00%     78.98% # Class of executed instruction. (Count)
system.timingCpu1.exec_context.thread_0.statExecutedInstType::FloatMultAcc            0      0.00%     78.98% # Class of executed instruction. (Count)
system.timingCpu1.exec_context.thread_0.statExecutedInstType::FloatDiv            0      0.00%     78.98% # Class of executed instruction. (Count)
system.timingCpu1.exec_context.thread_0.statExecutedInstType::FloatMisc            0      0.00%     78.98% # Class of executed instruction. (Count)
system.timingCpu1.exec_context.thread_0.statExecutedInstType::FloatSqrt            0      0.00%     78.98% # Class of executed instruction. (Count)
system.timingCpu1.exec_context.thread_0.statExecutedInstType::SimdAdd       524322      0.02%     79.01% # Class of executed instruction. (Count)
system.timingCpu1.exec_context.thread_0.statExecutedInstType::SimdAddAcc            0      0.00%     79.01% # Class of executed instruction. (Count)
system.timingCpu1.exec_context.thread_0.statExecutedInstType::SimdAlu           52      0.00%     79.01% # Class of executed instruction. (Count)
system.timingCpu1.exec_context.thread_0.statExecutedInstType::SimdCmp            0      0.00%     79.01% # Class of executed instruction. (Count)
system.timingCpu1.exec_context.thread_0.statExecutedInstType::SimdCvt           68      0.00%     79.01% # Class of executed instruction. (Count)
system.timingCpu1.exec_context.thread_0.statExecutedInstType::SimdMisc           34      0.00%     79.01% # Class of executed instruction. (Count)
system.timingCpu1.exec_context.thread_0.statExecutedInstType::SimdMult            0      0.00%     79.01% # Class of executed instruction. (Count)
system.timingCpu1.exec_context.thread_0.statExecutedInstType::SimdMultAcc            0      0.00%     79.01% # Class of executed instruction. (Count)
system.timingCpu1.exec_context.thread_0.statExecutedInstType::SimdShift       524316      0.02%     79.03% # Class of executed instruction. (Count)
system.timingCpu1.exec_context.thread_0.statExecutedInstType::SimdShiftAcc            0      0.00%     79.03% # Class of executed instruction. (Count)
system.timingCpu1.exec_context.thread_0.statExecutedInstType::SimdDiv            0      0.00%     79.03% # Class of executed instruction. (Count)
system.timingCpu1.exec_context.thread_0.statExecutedInstType::SimdSqrt            0      0.00%     79.03% # Class of executed instruction. (Count)
system.timingCpu1.exec_context.thread_0.statExecutedInstType::SimdFloatAdd            0      0.00%     79.03% # Class of executed instruction. (Count)
system.timingCpu1.exec_context.thread_0.statExecutedInstType::SimdFloatAlu            0      0.00%     79.03% # Class of executed instruction. (Count)
system.timingCpu1.exec_context.thread_0.statExecutedInstType::SimdFloatCmp            0      0.00%     79.03% # Class of executed instruction. (Count)
system.timingCpu1.exec_context.thread_0.statExecutedInstType::SimdFloatCvt            0      0.00%     79.03% # Class of executed instruction. (Count)
system.timingCpu1.exec_context.thread_0.statExecutedInstType::SimdFloatDiv            0      0.00%     79.03% # Class of executed instruction. (Count)
system.timingCpu1.exec_context.thread_0.statExecutedInstType::SimdFloatMisc            0      0.00%     79.03% # Class of executed instruction. (Count)
system.timingCpu1.exec_context.thread_0.statExecutedInstType::SimdFloatMult            0      0.00%     79.03% # Class of executed instruction. (Count)
system.timingCpu1.exec_context.thread_0.statExecutedInstType::SimdFloatMultAcc            0      0.00%     79.03% # Class of executed instruction. (Count)
system.timingCpu1.exec_context.thread_0.statExecutedInstType::SimdFloatSqrt            0      0.00%     79.03% # Class of executed instruction. (Count)
system.timingCpu1.exec_context.thread_0.statExecutedInstType::SimdReduceAdd            0      0.00%     79.03% # Class of executed instruction. (Count)
system.timingCpu1.exec_context.thread_0.statExecutedInstType::SimdReduceAlu            0      0.00%     79.03% # Class of executed instruction. (Count)
system.timingCpu1.exec_context.thread_0.statExecutedInstType::SimdReduceCmp            0      0.00%     79.03% # Class of executed instruction. (Count)
system.timingCpu1.exec_context.thread_0.statExecutedInstType::SimdFloatReduceAdd            0      0.00%     79.03% # Class of executed instruction. (Count)
system.timingCpu1.exec_context.thread_0.statExecutedInstType::SimdFloatReduceCmp            0      0.00%     79.03% # Class of executed instruction. (Count)
system.timingCpu1.exec_context.thread_0.statExecutedInstType::SimdAes            0      0.00%     79.03% # Class of executed instruction. (Count)
system.timingCpu1.exec_context.thread_0.statExecutedInstType::SimdAesMix            0      0.00%     79.03% # Class of executed instruction. (Count)
system.timingCpu1.exec_context.thread_0.statExecutedInstType::SimdSha1Hash            0      0.00%     79.03% # Class of executed instruction. (Count)
system.timingCpu1.exec_context.thread_0.statExecutedInstType::SimdSha1Hash2            0      0.00%     79.03% # Class of executed instruction. (Count)
system.timingCpu1.exec_context.thread_0.statExecutedInstType::SimdSha256Hash            0      0.00%     79.03% # Class of executed instruction. (Count)
system.timingCpu1.exec_context.thread_0.statExecutedInstType::SimdSha256Hash2            0      0.00%     79.03% # Class of executed instruction. (Count)
system.timingCpu1.exec_context.thread_0.statExecutedInstType::SimdShaSigma2            0      0.00%     79.03% # Class of executed instruction. (Count)
system.timingCpu1.exec_context.thread_0.statExecutedInstType::SimdShaSigma3            0      0.00%     79.03% # Class of executed instruction. (Count)
system.timingCpu1.exec_context.thread_0.statExecutedInstType::SimdPredAlu            0      0.00%     79.03% # Class of executed instruction. (Count)
system.timingCpu1.exec_context.thread_0.statExecutedInstType::MemRead    294207296     13.64%     92.67% # Class of executed instruction. (Count)
system.timingCpu1.exec_context.thread_0.statExecutedInstType::MemWrite    155623974      7.21%     99.88% # Class of executed instruction. (Count)
system.timingCpu1.exec_context.thread_0.statExecutedInstType::FloatMemRead      1252639      0.06%     99.94% # Class of executed instruction. (Count)
system.timingCpu1.exec_context.thread_0.statExecutedInstType::FloatMemWrite      1252835      0.06%    100.00% # Class of executed instruction. (Count)
system.timingCpu1.exec_context.thread_0.statExecutedInstType::IprAccess            0      0.00%    100.00% # Class of executed instruction. (Count)
system.timingCpu1.exec_context.thread_0.statExecutedInstType::InstPrefetch            0      0.00%    100.00% # Class of executed instruction. (Count)
system.timingCpu1.exec_context.thread_0.statExecutedInstType::total   2157367946                       # Class of executed instruction. (Count)
system.timingCpu1.mmu.dtb.rdAccesses        300791914                       # TLB accesses on read requests (Count)
system.timingCpu1.mmu.dtb.wrAccesses        157141984                       # TLB accesses on write requests (Count)
system.timingCpu1.mmu.dtb.rdMisses            5270668                       # TLB misses on read requests (Count)
system.timingCpu1.mmu.dtb.wrMisses             199744                       # TLB misses on write requests (Count)
system.timingCpu1.mmu.dtb.walker.power_state.pwrStateResidencyTicks::UNDEFINED 156319320182500                       # Cumulative time (in ticks) in various power states (Tick)
system.timingCpu1.mmu.itb.rdAccesses                0                       # TLB accesses on read requests (Count)
system.timingCpu1.mmu.itb.wrAccesses       1667936492                       # TLB accesses on write requests (Count)
system.timingCpu1.mmu.itb.rdMisses                  0                       # TLB misses on read requests (Count)
system.timingCpu1.mmu.itb.wrMisses               5024                       # TLB misses on write requests (Count)
system.timingCpu1.mmu.itb.walker.power_state.pwrStateResidencyTicks::UNDEFINED 156319320182500                       # Cumulative time (in ticks) in various power states (Tick)
system.timingCpu1.power_state.numTransitions          726                       # Number of power state transitions (Count)
system.timingCpu1.power_state.ticksClkGated::samples          363                       # Distribution of time spent in the clock gated state (Tick)
system.timingCpu1.power_state.ticksClkGated::mean 977642674.931129                       # Distribution of time spent in the clock gated state (Tick)
system.timingCpu1.power_state.ticksClkGated::stdev 112087221.234744                       # Distribution of time spent in the clock gated state (Tick)
system.timingCpu1.power_state.ticksClkGated::1000-5e+10          363    100.00%    100.00% # Distribution of time spent in the clock gated state (Tick)
system.timingCpu1.power_state.ticksClkGated::min_value     43635250                       # Distribution of time spent in the clock gated state (Tick)
system.timingCpu1.power_state.ticksClkGated::max_value    998693000                       # Distribution of time spent in the clock gated state (Tick)
system.timingCpu1.power_state.ticksClkGated::total          363                       # Distribution of time spent in the clock gated state (Tick)
system.timingCpu1.power_state.pwrStateResidencyTicks::ON 1644094573250                       # Cumulative time (in ticks) in various power states (Tick)
system.timingCpu1.power_state.pwrStateResidencyTicks::CLK_GATED 354884291000                       # Cumulative time (in ticks) in various power states (Tick)
system.timingCpu1.power_state.pwrStateResidencyTicks::OFF 154320341318250                       # Cumulative time (in ticks) in various power states (Tick)
system.timingCpu1.thread_0.numInsts                 0                       # Number of Instructions committed (Count)
system.timingCpu1.thread_0.numOps                   0                       # Number of Ops committed (Count)
system.timingCpu1.thread_0.numMemRefs               0                       # Number of Memory References (Count)
system.workload.inst.arm                            0                       # number of arm instructions executed (Count)
system.workload.inst.quiesce                        0                       # number of quiesce instructions executed (Count)

---------- End Simulation Statistics   ----------
