
---------- Begin Simulation Statistics ----------
simSeconds                                   1.274978                       # Number of seconds simulated (Second)
simTicks                                 1274978401001                       # Number of ticks simulated (Tick)
finalTick                                155885284919501                       # Number of ticks from beginning of simulation (restored from checkpoints and never reset) (Tick)
simFreq                                  1000000000000                       # The number of ticks per simulated second ((Tick/Second))
hostSeconds                                   5474.77                       # Real time elapsed on the host (Second)
hostTickRate                                232882732                       # The number of ticks simulated per host second (ticks/s) ((Tick/Second))
hostMemory                                    7881392                       # Number of bytes of host memory used (Byte)
simInsts                                  39412511476                       # Number of instructions simulated (Count)
simOps                                    40124561134                       # Number of ops (including micro ops) simulated (Count)
hostInstRate                                  7198940                       # Simulator instruction rate (inst/s) ((Count/Second))
hostOpRate                                    7329000                       # Simulator op (including micro ops) rate (op/s) ((Count/Second))
system.work_item_type0::samples                     1                       # Run time stat forwork_item_type0 (Unspecified)
system.work_item_type0::mean             1274978401001                       # Run time stat forwork_item_type0 (Unspecified)
system.work_item_type0::gmean            1274978401001.001709                       # Run time stat forwork_item_type0 (Unspecified)
system.work_item_type0::stdev                     nan                       # Run time stat forwork_item_type0 (Unspecified)
system.work_item_type0::0-6.87195e+10               0      0.00%      0.00% # Run time stat forwork_item_type0 (Unspecified)
system.work_item_type0::6.87195e+10-1.37439e+11            0      0.00%      0.00% # Run time stat forwork_item_type0 (Unspecified)
system.work_item_type0::1.37439e+11-2.06158e+11            0      0.00%      0.00% # Run time stat forwork_item_type0 (Unspecified)
system.work_item_type0::2.06158e+11-2.74878e+11            0      0.00%      0.00% # Run time stat forwork_item_type0 (Unspecified)
system.work_item_type0::2.74878e+11-3.43597e+11            0      0.00%      0.00% # Run time stat forwork_item_type0 (Unspecified)
system.work_item_type0::3.43597e+11-4.12317e+11            0      0.00%      0.00% # Run time stat forwork_item_type0 (Unspecified)
system.work_item_type0::4.12317e+11-4.81036e+11            0      0.00%      0.00% # Run time stat forwork_item_type0 (Unspecified)
system.work_item_type0::4.81036e+11-5.49756e+11            0      0.00%      0.00% # Run time stat forwork_item_type0 (Unspecified)
system.work_item_type0::5.49756e+11-6.18475e+11            0      0.00%      0.00% # Run time stat forwork_item_type0 (Unspecified)
system.work_item_type0::6.18475e+11-6.87195e+11            0      0.00%      0.00% # Run time stat forwork_item_type0 (Unspecified)
system.work_item_type0::6.87195e+11-7.55914e+11            0      0.00%      0.00% # Run time stat forwork_item_type0 (Unspecified)
system.work_item_type0::7.55914e+11-8.24634e+11            0      0.00%      0.00% # Run time stat forwork_item_type0 (Unspecified)
system.work_item_type0::8.24634e+11-8.93353e+11            0      0.00%      0.00% # Run time stat forwork_item_type0 (Unspecified)
system.work_item_type0::8.93353e+11-9.62073e+11            0      0.00%      0.00% # Run time stat forwork_item_type0 (Unspecified)
system.work_item_type0::9.62073e+11-1.03079e+12            0      0.00%      0.00% # Run time stat forwork_item_type0 (Unspecified)
system.work_item_type0::1.03079e+12-1.09951e+12            0      0.00%      0.00% # Run time stat forwork_item_type0 (Unspecified)
system.work_item_type0::1.09951e+12-1.16823e+12            0      0.00%      0.00% # Run time stat forwork_item_type0 (Unspecified)
system.work_item_type0::1.16823e+12-1.23695e+12            0      0.00%      0.00% # Run time stat forwork_item_type0 (Unspecified)
system.work_item_type0::1.23695e+12-1.30567e+12            1    100.00%    100.00% # Run time stat forwork_item_type0 (Unspecified)
system.work_item_type0::1.30567e+12-1.37439e+12            0      0.00%    100.00% # Run time stat forwork_item_type0 (Unspecified)
system.work_item_type0::total                       1                       # Run time stat forwork_item_type0 (Unspecified)
system.atomicCpu0.numCycles                         0                       # Number of cpu cycles simulated (Cycle)
system.atomicCpu0.numWorkItemsStarted               0                       # Number of work items this cpu started (Count)
system.atomicCpu0.numWorkItemsCompleted             0                       # Number of work items this cpu completed (Count)
system.atomicCpu0.exec_context.thread_0.numInsts            0                       # Number of instructions committed (Count)
system.atomicCpu0.exec_context.thread_0.numOps            0                       # Number of ops (including micro ops) committed (Count)
system.atomicCpu0.exec_context.thread_0.numIntAluAccesses            0                       # Number of integer alu accesses (Count)
system.atomicCpu0.exec_context.thread_0.numFpAluAccesses            0                       # Number of float alu accesses (Count)
system.atomicCpu0.exec_context.thread_0.numVecAluAccesses            0                       # Number of vector alu accesses (Count)
system.atomicCpu0.exec_context.thread_0.numCallsReturns            0                       # Number of times a function call or return occured (Count)
system.atomicCpu0.exec_context.thread_0.numCondCtrlInsts            0                       # Number of instructions that are conditional controls (Count)
system.atomicCpu0.exec_context.thread_0.numIntInsts            0                       # Number of integer instructions (Count)
system.atomicCpu0.exec_context.thread_0.numFpInsts            0                       # Number of float instructions (Count)
system.atomicCpu0.exec_context.thread_0.numVecInsts            0                       # Number of vector instructions (Count)
system.atomicCpu0.exec_context.thread_0.numIntRegReads            0                       # Number of times the integer registers were read (Count)
system.atomicCpu0.exec_context.thread_0.numIntRegWrites            0                       # Number of times the integer registers were written (Count)
system.atomicCpu0.exec_context.thread_0.numFpRegReads            0                       # Number of times the floating registers were read (Count)
system.atomicCpu0.exec_context.thread_0.numFpRegWrites            0                       # Number of times the floating registers were written (Count)
system.atomicCpu0.exec_context.thread_0.numVecRegReads            0                       # Number of times the vector registers were read (Count)
system.atomicCpu0.exec_context.thread_0.numVecRegWrites            0                       # Number of times the vector registers were written (Count)
system.atomicCpu0.exec_context.thread_0.numVecPredRegReads            0                       # Number of times the predicate registers were read (Count)
system.atomicCpu0.exec_context.thread_0.numVecPredRegWrites            0                       # Number of times the predicate registers were written (Count)
system.atomicCpu0.exec_context.thread_0.numMiscRegReads            0                       # Number of times the Misc registers were read (Count)
system.atomicCpu0.exec_context.thread_0.numMiscRegWrites            0                       # Number of times the Misc registers were written (Count)
system.atomicCpu0.exec_context.thread_0.numMemRefs            0                       # Number of memory refs (Count)
system.atomicCpu0.exec_context.thread_0.numLoadInsts            0                       # Number of load instructions (Count)
system.atomicCpu0.exec_context.thread_0.numStoreInsts            0                       # Number of store instructions (Count)
system.atomicCpu0.exec_context.thread_0.numIdleCycles            0                       # Number of idle cycles (Cycle)
system.atomicCpu0.exec_context.thread_0.numBusyCycles            0                       # Number of busy cycles (Cycle)
system.atomicCpu0.exec_context.thread_0.notIdleFraction            0                       # Percentage of non-idle cycles (Ratio)
system.atomicCpu0.exec_context.thread_0.idleFraction            1                       # Percentage of idle cycles (Ratio)
system.atomicCpu0.exec_context.thread_0.statExecutedInstType::No_OpClass            0                       # Class of executed instruction. (Count)
system.atomicCpu0.exec_context.thread_0.statExecutedInstType::IntAlu            0                       # Class of executed instruction. (Count)
system.atomicCpu0.exec_context.thread_0.statExecutedInstType::IntMult            0                       # Class of executed instruction. (Count)
system.atomicCpu0.exec_context.thread_0.statExecutedInstType::IntDiv            0                       # Class of executed instruction. (Count)
system.atomicCpu0.exec_context.thread_0.statExecutedInstType::FloatAdd            0                       # Class of executed instruction. (Count)
system.atomicCpu0.exec_context.thread_0.statExecutedInstType::FloatCmp            0                       # Class of executed instruction. (Count)
system.atomicCpu0.exec_context.thread_0.statExecutedInstType::FloatCvt            0                       # Class of executed instruction. (Count)
system.atomicCpu0.exec_context.thread_0.statExecutedInstType::FloatMult            0                       # Class of executed instruction. (Count)
system.atomicCpu0.exec_context.thread_0.statExecutedInstType::FloatMultAcc            0                       # Class of executed instruction. (Count)
system.atomicCpu0.exec_context.thread_0.statExecutedInstType::FloatDiv            0                       # Class of executed instruction. (Count)
system.atomicCpu0.exec_context.thread_0.statExecutedInstType::FloatMisc            0                       # Class of executed instruction. (Count)
system.atomicCpu0.exec_context.thread_0.statExecutedInstType::FloatSqrt            0                       # Class of executed instruction. (Count)
system.atomicCpu0.exec_context.thread_0.statExecutedInstType::SimdAdd            0                       # Class of executed instruction. (Count)
system.atomicCpu0.exec_context.thread_0.statExecutedInstType::SimdAddAcc            0                       # Class of executed instruction. (Count)
system.atomicCpu0.exec_context.thread_0.statExecutedInstType::SimdAlu            0                       # Class of executed instruction. (Count)
system.atomicCpu0.exec_context.thread_0.statExecutedInstType::SimdCmp            0                       # Class of executed instruction. (Count)
system.atomicCpu0.exec_context.thread_0.statExecutedInstType::SimdCvt            0                       # Class of executed instruction. (Count)
system.atomicCpu0.exec_context.thread_0.statExecutedInstType::SimdMisc            0                       # Class of executed instruction. (Count)
system.atomicCpu0.exec_context.thread_0.statExecutedInstType::SimdMult            0                       # Class of executed instruction. (Count)
system.atomicCpu0.exec_context.thread_0.statExecutedInstType::SimdMultAcc            0                       # Class of executed instruction. (Count)
system.atomicCpu0.exec_context.thread_0.statExecutedInstType::SimdShift            0                       # Class of executed instruction. (Count)
system.atomicCpu0.exec_context.thread_0.statExecutedInstType::SimdShiftAcc            0                       # Class of executed instruction. (Count)
system.atomicCpu0.exec_context.thread_0.statExecutedInstType::SimdDiv            0                       # Class of executed instruction. (Count)
system.atomicCpu0.exec_context.thread_0.statExecutedInstType::SimdSqrt            0                       # Class of executed instruction. (Count)
system.atomicCpu0.exec_context.thread_0.statExecutedInstType::SimdFloatAdd            0                       # Class of executed instruction. (Count)
system.atomicCpu0.exec_context.thread_0.statExecutedInstType::SimdFloatAlu            0                       # Class of executed instruction. (Count)
system.atomicCpu0.exec_context.thread_0.statExecutedInstType::SimdFloatCmp            0                       # Class of executed instruction. (Count)
system.atomicCpu0.exec_context.thread_0.statExecutedInstType::SimdFloatCvt            0                       # Class of executed instruction. (Count)
system.atomicCpu0.exec_context.thread_0.statExecutedInstType::SimdFloatDiv            0                       # Class of executed instruction. (Count)
system.atomicCpu0.exec_context.thread_0.statExecutedInstType::SimdFloatMisc            0                       # Class of executed instruction. (Count)
system.atomicCpu0.exec_context.thread_0.statExecutedInstType::SimdFloatMult            0                       # Class of executed instruction. (Count)
system.atomicCpu0.exec_context.thread_0.statExecutedInstType::SimdFloatMultAcc            0                       # Class of executed instruction. (Count)
system.atomicCpu0.exec_context.thread_0.statExecutedInstType::SimdFloatSqrt            0                       # Class of executed instruction. (Count)
system.atomicCpu0.exec_context.thread_0.statExecutedInstType::SimdReduceAdd            0                       # Class of executed instruction. (Count)
system.atomicCpu0.exec_context.thread_0.statExecutedInstType::SimdReduceAlu            0                       # Class of executed instruction. (Count)
system.atomicCpu0.exec_context.thread_0.statExecutedInstType::SimdReduceCmp            0                       # Class of executed instruction. (Count)
system.atomicCpu0.exec_context.thread_0.statExecutedInstType::SimdFloatReduceAdd            0                       # Class of executed instruction. (Count)
system.atomicCpu0.exec_context.thread_0.statExecutedInstType::SimdFloatReduceCmp            0                       # Class of executed instruction. (Count)
system.atomicCpu0.exec_context.thread_0.statExecutedInstType::SimdAes            0                       # Class of executed instruction. (Count)
system.atomicCpu0.exec_context.thread_0.statExecutedInstType::SimdAesMix            0                       # Class of executed instruction. (Count)
system.atomicCpu0.exec_context.thread_0.statExecutedInstType::SimdSha1Hash            0                       # Class of executed instruction. (Count)
system.atomicCpu0.exec_context.thread_0.statExecutedInstType::SimdSha1Hash2            0                       # Class of executed instruction. (Count)
system.atomicCpu0.exec_context.thread_0.statExecutedInstType::SimdSha256Hash            0                       # Class of executed instruction. (Count)
system.atomicCpu0.exec_context.thread_0.statExecutedInstType::SimdSha256Hash2            0                       # Class of executed instruction. (Count)
system.atomicCpu0.exec_context.thread_0.statExecutedInstType::SimdShaSigma2            0                       # Class of executed instruction. (Count)
system.atomicCpu0.exec_context.thread_0.statExecutedInstType::SimdShaSigma3            0                       # Class of executed instruction. (Count)
system.atomicCpu0.exec_context.thread_0.statExecutedInstType::SimdPredAlu            0                       # Class of executed instruction. (Count)
system.atomicCpu0.exec_context.thread_0.statExecutedInstType::MemRead            0                       # Class of executed instruction. (Count)
system.atomicCpu0.exec_context.thread_0.statExecutedInstType::MemWrite            0                       # Class of executed instruction. (Count)
system.atomicCpu0.exec_context.thread_0.statExecutedInstType::FloatMemRead            0                       # Class of executed instruction. (Count)
system.atomicCpu0.exec_context.thread_0.statExecutedInstType::FloatMemWrite            0                       # Class of executed instruction. (Count)
system.atomicCpu0.exec_context.thread_0.statExecutedInstType::IprAccess            0                       # Class of executed instruction. (Count)
system.atomicCpu0.exec_context.thread_0.statExecutedInstType::InstPrefetch            0                       # Class of executed instruction. (Count)
system.atomicCpu0.exec_context.thread_0.statExecutedInstType::total            0                       # Class of executed instruction. (Count)
system.atomicCpu0.mmu.dtb.rdAccesses                0                       # TLB accesses on read requests (Count)
system.atomicCpu0.mmu.dtb.wrAccesses                0                       # TLB accesses on write requests (Count)
system.atomicCpu0.mmu.dtb.rdMisses                  0                       # TLB misses on read requests (Count)
system.atomicCpu0.mmu.dtb.wrMisses                  0                       # TLB misses on write requests (Count)
system.atomicCpu0.mmu.dtb.walker.power_state.pwrStateResidencyTicks::UNDEFINED 155885284919501                       # Cumulative time (in ticks) in various power states (Tick)
system.atomicCpu0.mmu.itb.rdAccesses                0                       # TLB accesses on read requests (Count)
system.atomicCpu0.mmu.itb.wrAccesses                0                       # TLB accesses on write requests (Count)
system.atomicCpu0.mmu.itb.rdMisses                  0                       # TLB misses on read requests (Count)
system.atomicCpu0.mmu.itb.wrMisses                  0                       # TLB misses on write requests (Count)
system.atomicCpu0.mmu.itb.walker.power_state.pwrStateResidencyTicks::UNDEFINED 155885284919501                       # Cumulative time (in ticks) in various power states (Tick)
system.atomicCpu0.power_state.pwrStateResidencyTicks::OFF 155885284919501                       # Cumulative time (in ticks) in various power states (Tick)
system.atomicCpu0.thread_0.numInsts                 0                       # Number of Instructions committed (Count)
system.atomicCpu0.thread_0.numOps                   0                       # Number of Ops committed (Count)
system.atomicCpu0.thread_0.numMemRefs               0                       # Number of Memory References (Count)
system.atomicCpu1.numCycles                         0                       # Number of cpu cycles simulated (Cycle)
system.atomicCpu1.numWorkItemsStarted               0                       # Number of work items this cpu started (Count)
system.atomicCpu1.numWorkItemsCompleted             0                       # Number of work items this cpu completed (Count)
system.atomicCpu1.exec_context.thread_0.numInsts            0                       # Number of instructions committed (Count)
system.atomicCpu1.exec_context.thread_0.numOps            0                       # Number of ops (including micro ops) committed (Count)
system.atomicCpu1.exec_context.thread_0.numIntAluAccesses            0                       # Number of integer alu accesses (Count)
system.atomicCpu1.exec_context.thread_0.numFpAluAccesses            0                       # Number of float alu accesses (Count)
system.atomicCpu1.exec_context.thread_0.numVecAluAccesses            0                       # Number of vector alu accesses (Count)
system.atomicCpu1.exec_context.thread_0.numCallsReturns            0                       # Number of times a function call or return occured (Count)
system.atomicCpu1.exec_context.thread_0.numCondCtrlInsts            0                       # Number of instructions that are conditional controls (Count)
system.atomicCpu1.exec_context.thread_0.numIntInsts            0                       # Number of integer instructions (Count)
system.atomicCpu1.exec_context.thread_0.numFpInsts            0                       # Number of float instructions (Count)
system.atomicCpu1.exec_context.thread_0.numVecInsts            0                       # Number of vector instructions (Count)
system.atomicCpu1.exec_context.thread_0.numIntRegReads            0                       # Number of times the integer registers were read (Count)
system.atomicCpu1.exec_context.thread_0.numIntRegWrites            0                       # Number of times the integer registers were written (Count)
system.atomicCpu1.exec_context.thread_0.numFpRegReads            0                       # Number of times the floating registers were read (Count)
system.atomicCpu1.exec_context.thread_0.numFpRegWrites            0                       # Number of times the floating registers were written (Count)
system.atomicCpu1.exec_context.thread_0.numVecRegReads            0                       # Number of times the vector registers were read (Count)
system.atomicCpu1.exec_context.thread_0.numVecRegWrites            0                       # Number of times the vector registers were written (Count)
system.atomicCpu1.exec_context.thread_0.numVecPredRegReads            0                       # Number of times the predicate registers were read (Count)
system.atomicCpu1.exec_context.thread_0.numVecPredRegWrites            0                       # Number of times the predicate registers were written (Count)
system.atomicCpu1.exec_context.thread_0.numMiscRegReads            0                       # Number of times the Misc registers were read (Count)
system.atomicCpu1.exec_context.thread_0.numMiscRegWrites            0                       # Number of times the Misc registers were written (Count)
system.atomicCpu1.exec_context.thread_0.numMemRefs            0                       # Number of memory refs (Count)
system.atomicCpu1.exec_context.thread_0.numLoadInsts            0                       # Number of load instructions (Count)
system.atomicCpu1.exec_context.thread_0.numStoreInsts            0                       # Number of store instructions (Count)
system.atomicCpu1.exec_context.thread_0.numIdleCycles            0                       # Number of idle cycles (Cycle)
system.atomicCpu1.exec_context.thread_0.numBusyCycles            0                       # Number of busy cycles (Cycle)
system.atomicCpu1.exec_context.thread_0.notIdleFraction            0                       # Percentage of non-idle cycles (Ratio)
system.atomicCpu1.exec_context.thread_0.idleFraction            1                       # Percentage of idle cycles (Ratio)
system.atomicCpu1.exec_context.thread_0.statExecutedInstType::No_OpClass            0                       # Class of executed instruction. (Count)
system.atomicCpu1.exec_context.thread_0.statExecutedInstType::IntAlu            0                       # Class of executed instruction. (Count)
system.atomicCpu1.exec_context.thread_0.statExecutedInstType::IntMult            0                       # Class of executed instruction. (Count)
system.atomicCpu1.exec_context.thread_0.statExecutedInstType::IntDiv            0                       # Class of executed instruction. (Count)
system.atomicCpu1.exec_context.thread_0.statExecutedInstType::FloatAdd            0                       # Class of executed instruction. (Count)
system.atomicCpu1.exec_context.thread_0.statExecutedInstType::FloatCmp            0                       # Class of executed instruction. (Count)
system.atomicCpu1.exec_context.thread_0.statExecutedInstType::FloatCvt            0                       # Class of executed instruction. (Count)
system.atomicCpu1.exec_context.thread_0.statExecutedInstType::FloatMult            0                       # Class of executed instruction. (Count)
system.atomicCpu1.exec_context.thread_0.statExecutedInstType::FloatMultAcc            0                       # Class of executed instruction. (Count)
system.atomicCpu1.exec_context.thread_0.statExecutedInstType::FloatDiv            0                       # Class of executed instruction. (Count)
system.atomicCpu1.exec_context.thread_0.statExecutedInstType::FloatMisc            0                       # Class of executed instruction. (Count)
system.atomicCpu1.exec_context.thread_0.statExecutedInstType::FloatSqrt            0                       # Class of executed instruction. (Count)
system.atomicCpu1.exec_context.thread_0.statExecutedInstType::SimdAdd            0                       # Class of executed instruction. (Count)
system.atomicCpu1.exec_context.thread_0.statExecutedInstType::SimdAddAcc            0                       # Class of executed instruction. (Count)
system.atomicCpu1.exec_context.thread_0.statExecutedInstType::SimdAlu            0                       # Class of executed instruction. (Count)
system.atomicCpu1.exec_context.thread_0.statExecutedInstType::SimdCmp            0                       # Class of executed instruction. (Count)
system.atomicCpu1.exec_context.thread_0.statExecutedInstType::SimdCvt            0                       # Class of executed instruction. (Count)
system.atomicCpu1.exec_context.thread_0.statExecutedInstType::SimdMisc            0                       # Class of executed instruction. (Count)
system.atomicCpu1.exec_context.thread_0.statExecutedInstType::SimdMult            0                       # Class of executed instruction. (Count)
system.atomicCpu1.exec_context.thread_0.statExecutedInstType::SimdMultAcc            0                       # Class of executed instruction. (Count)
system.atomicCpu1.exec_context.thread_0.statExecutedInstType::SimdShift            0                       # Class of executed instruction. (Count)
system.atomicCpu1.exec_context.thread_0.statExecutedInstType::SimdShiftAcc            0                       # Class of executed instruction. (Count)
system.atomicCpu1.exec_context.thread_0.statExecutedInstType::SimdDiv            0                       # Class of executed instruction. (Count)
system.atomicCpu1.exec_context.thread_0.statExecutedInstType::SimdSqrt            0                       # Class of executed instruction. (Count)
system.atomicCpu1.exec_context.thread_0.statExecutedInstType::SimdFloatAdd            0                       # Class of executed instruction. (Count)
system.atomicCpu1.exec_context.thread_0.statExecutedInstType::SimdFloatAlu            0                       # Class of executed instruction. (Count)
system.atomicCpu1.exec_context.thread_0.statExecutedInstType::SimdFloatCmp            0                       # Class of executed instruction. (Count)
system.atomicCpu1.exec_context.thread_0.statExecutedInstType::SimdFloatCvt            0                       # Class of executed instruction. (Count)
system.atomicCpu1.exec_context.thread_0.statExecutedInstType::SimdFloatDiv            0                       # Class of executed instruction. (Count)
system.atomicCpu1.exec_context.thread_0.statExecutedInstType::SimdFloatMisc            0                       # Class of executed instruction. (Count)
system.atomicCpu1.exec_context.thread_0.statExecutedInstType::SimdFloatMult            0                       # Class of executed instruction. (Count)
system.atomicCpu1.exec_context.thread_0.statExecutedInstType::SimdFloatMultAcc            0                       # Class of executed instruction. (Count)
system.atomicCpu1.exec_context.thread_0.statExecutedInstType::SimdFloatSqrt            0                       # Class of executed instruction. (Count)
system.atomicCpu1.exec_context.thread_0.statExecutedInstType::SimdReduceAdd            0                       # Class of executed instruction. (Count)
system.atomicCpu1.exec_context.thread_0.statExecutedInstType::SimdReduceAlu            0                       # Class of executed instruction. (Count)
system.atomicCpu1.exec_context.thread_0.statExecutedInstType::SimdReduceCmp            0                       # Class of executed instruction. (Count)
system.atomicCpu1.exec_context.thread_0.statExecutedInstType::SimdFloatReduceAdd            0                       # Class of executed instruction. (Count)
system.atomicCpu1.exec_context.thread_0.statExecutedInstType::SimdFloatReduceCmp            0                       # Class of executed instruction. (Count)
system.atomicCpu1.exec_context.thread_0.statExecutedInstType::SimdAes            0                       # Class of executed instruction. (Count)
system.atomicCpu1.exec_context.thread_0.statExecutedInstType::SimdAesMix            0                       # Class of executed instruction. (Count)
system.atomicCpu1.exec_context.thread_0.statExecutedInstType::SimdSha1Hash            0                       # Class of executed instruction. (Count)
system.atomicCpu1.exec_context.thread_0.statExecutedInstType::SimdSha1Hash2            0                       # Class of executed instruction. (Count)
system.atomicCpu1.exec_context.thread_0.statExecutedInstType::SimdSha256Hash            0                       # Class of executed instruction. (Count)
system.atomicCpu1.exec_context.thread_0.statExecutedInstType::SimdSha256Hash2            0                       # Class of executed instruction. (Count)
system.atomicCpu1.exec_context.thread_0.statExecutedInstType::SimdShaSigma2            0                       # Class of executed instruction. (Count)
system.atomicCpu1.exec_context.thread_0.statExecutedInstType::SimdShaSigma3            0                       # Class of executed instruction. (Count)
system.atomicCpu1.exec_context.thread_0.statExecutedInstType::SimdPredAlu            0                       # Class of executed instruction. (Count)
system.atomicCpu1.exec_context.thread_0.statExecutedInstType::MemRead            0                       # Class of executed instruction. (Count)
system.atomicCpu1.exec_context.thread_0.statExecutedInstType::MemWrite            0                       # Class of executed instruction. (Count)
system.atomicCpu1.exec_context.thread_0.statExecutedInstType::FloatMemRead            0                       # Class of executed instruction. (Count)
system.atomicCpu1.exec_context.thread_0.statExecutedInstType::FloatMemWrite            0                       # Class of executed instruction. (Count)
system.atomicCpu1.exec_context.thread_0.statExecutedInstType::IprAccess            0                       # Class of executed instruction. (Count)
system.atomicCpu1.exec_context.thread_0.statExecutedInstType::InstPrefetch            0                       # Class of executed instruction. (Count)
system.atomicCpu1.exec_context.thread_0.statExecutedInstType::total            0                       # Class of executed instruction. (Count)
system.atomicCpu1.mmu.dtb.rdAccesses                0                       # TLB accesses on read requests (Count)
system.atomicCpu1.mmu.dtb.wrAccesses                0                       # TLB accesses on write requests (Count)
system.atomicCpu1.mmu.dtb.rdMisses                  0                       # TLB misses on read requests (Count)
system.atomicCpu1.mmu.dtb.wrMisses                  0                       # TLB misses on write requests (Count)
system.atomicCpu1.mmu.dtb.walker.power_state.pwrStateResidencyTicks::UNDEFINED 155885284919501                       # Cumulative time (in ticks) in various power states (Tick)
system.atomicCpu1.mmu.itb.rdAccesses                0                       # TLB accesses on read requests (Count)
system.atomicCpu1.mmu.itb.wrAccesses                0                       # TLB accesses on write requests (Count)
system.atomicCpu1.mmu.itb.rdMisses                  0                       # TLB misses on read requests (Count)
system.atomicCpu1.mmu.itb.wrMisses                  0                       # TLB misses on write requests (Count)
system.atomicCpu1.mmu.itb.walker.power_state.pwrStateResidencyTicks::UNDEFINED 155885284919501                       # Cumulative time (in ticks) in various power states (Tick)
system.atomicCpu1.power_state.pwrStateResidencyTicks::OFF 155885284919501                       # Cumulative time (in ticks) in various power states (Tick)
system.atomicCpu1.thread_0.numInsts                 0                       # Number of Instructions committed (Count)
system.atomicCpu1.thread_0.numOps                   0                       # Number of Ops committed (Count)
system.atomicCpu1.thread_0.numMemRefs               0                       # Number of Memory References (Count)
system.caches.delayHistogram::bucket_size           64                       # delay histogram for all message (Unspecified)
system.caches.delayHistogram::max_bucket          639                       # delay histogram for all message (Unspecified)
system.caches.delayHistogram::samples       227209309                       # delay histogram for all message (Unspecified)
system.caches.delayHistogram::mean           0.334140                       # delay histogram for all message (Unspecified)
system.caches.delayHistogram::stdev          1.607052                       # delay histogram for all message (Unspecified)
system.caches.delayHistogram             |   227209291    100.00%    100.00% |          12      0.00%    100.00% |           1      0.00%    100.00% |           1      0.00%    100.00% |           1      0.00%    100.00% |           2      0.00%    100.00% |           0      0.00%    100.00% |           0      0.00%    100.00% |           1      0.00%    100.00% |           0      0.00%    100.00% # delay histogram for all message (Unspecified)
system.caches.delayHistogram::total         227209309                       # delay histogram for all message (Unspecified)
system.caches.m_outstandReqHistSeqr::bucket_size            1                       (Unspecified)
system.caches.m_outstandReqHistSeqr::max_bucket            9                       (Unspecified)
system.caches.m_outstandReqHistSeqr::samples   1844192365                       (Unspecified)
system.caches.m_outstandReqHistSeqr::mean     1.000039                       (Unspecified)
system.caches.m_outstandReqHistSeqr::gmean     1.000027                       (Unspecified)
system.caches.m_outstandReqHistSeqr::stdev     0.006248                       (Unspecified)
system.caches.m_outstandReqHistSeqr      |           0      0.00%      0.00% |  1844120380    100.00%    100.00% |       71985      0.00%    100.00% |           0      0.00%    100.00% |           0      0.00%    100.00% |           0      0.00%    100.00% |           0      0.00%    100.00% |           0      0.00%    100.00% |           0      0.00%    100.00% |           0      0.00%    100.00% (Unspecified)
system.caches.m_outstandReqHistSeqr::total   1844192365                       (Unspecified)
system.caches.m_latencyHistSeqr::bucket_size          512                       (Unspecified)
system.caches.m_latencyHistSeqr::max_bucket         5119                       (Unspecified)
system.caches.m_latencyHistSeqr::samples   1844192365                       (Unspecified)
system.caches.m_latencyHistSeqr::mean        4.500457                       (Unspecified)
system.caches.m_latencyHistSeqr::gmean       1.104249                       (Unspecified)
system.caches.m_latencyHistSeqr::stdev      43.381145                       (Unspecified)
system.caches.m_latencyHistSeqr          |  1840309558     99.79%     99.79% |     3577865      0.19%     99.98% |      113216      0.01%     99.99% |      169885      0.01%    100.00% |       21357      0.00%    100.00% |         439      0.00%    100.00% |          37      0.00%    100.00% |           6      0.00%    100.00% |           2      0.00%    100.00% |           0      0.00%    100.00% (Unspecified)
system.caches.m_latencyHistSeqr::total     1844192365                       (Unspecified)
system.caches.m_hitLatencyHistSeqr::bucket_size            1                       (Unspecified)
system.caches.m_hitLatencyHistSeqr::max_bucket            9                       (Unspecified)
system.caches.m_hitLatencyHistSeqr::samples   1791224185                       (Unspecified)
system.caches.m_hitLatencyHistSeqr::mean            1                       (Unspecified)
system.caches.m_hitLatencyHistSeqr::gmean            1                       (Unspecified)
system.caches.m_hitLatencyHistSeqr       |           0      0.00%      0.00% |  1791224185    100.00%    100.00% |           0      0.00%    100.00% |           0      0.00%    100.00% |           0      0.00%    100.00% |           0      0.00%    100.00% |           0      0.00%    100.00% |           0      0.00%    100.00% |           0      0.00%    100.00% |           0      0.00%    100.00% (Unspecified)
system.caches.m_hitLatencyHistSeqr::total   1791224185                       (Unspecified)
system.caches.m_missLatencyHistSeqr::bucket_size          512                       (Unspecified)
system.caches.m_missLatencyHistSeqr::max_bucket         5119                       (Unspecified)
system.caches.m_missLatencyHistSeqr::samples     52968180                       (Unspecified)
system.caches.m_missLatencyHistSeqr::mean   122.875369                       (Unspecified)
system.caches.m_missLatencyHistSeqr::gmean    31.584105                       (Unspecified)
system.caches.m_missLatencyHistSeqr::stdev   226.044084                       (Unspecified)
system.caches.m_missLatencyHistSeqr      |    49085373     92.67%     92.67% |     3577865      6.75%     99.42% |      113216      0.21%     99.64% |      169885      0.32%     99.96% |       21357      0.04%    100.00% |         439      0.00%    100.00% |          37      0.00%    100.00% |           6      0.00%    100.00% |           2      0.00%    100.00% |           0      0.00%    100.00% (Unspecified)
system.caches.m_missLatencyHistSeqr::total     52968180                       (Unspecified)
system.caches.delayVCHist.vnet_0::bucket_size           64                       # delay histogram for vnet_0 (Unspecified)
system.caches.delayVCHist.vnet_0::max_bucket          639                       # delay histogram for vnet_0 (Unspecified)
system.caches.delayVCHist.vnet_0::samples    112978179                       # delay histogram for vnet_0 (Unspecified)
system.caches.delayVCHist.vnet_0::mean       0.671285                       # delay histogram for vnet_0 (Unspecified)
system.caches.delayVCHist.vnet_0::stdev      2.227923                       # delay histogram for vnet_0 (Unspecified)
system.caches.delayVCHist.vnet_0         |   112978161    100.00%    100.00% |          12      0.00%    100.00% |           1      0.00%    100.00% |           1      0.00%    100.00% |           1      0.00%    100.00% |           2      0.00%    100.00% |           0      0.00%    100.00% |           0      0.00%    100.00% |           1      0.00%    100.00% |           0      0.00%    100.00% # delay histogram for vnet_0 (Unspecified)
system.caches.delayVCHist.vnet_0::total     112978179                       # delay histogram for vnet_0 (Unspecified)
system.caches.delayVCHist.vnet_1::bucket_size            2                       # delay histogram for vnet_1 (Unspecified)
system.caches.delayVCHist.vnet_1::max_bucket           19                       # delay histogram for vnet_1 (Unspecified)
system.caches.delayVCHist.vnet_1::samples    110445743                       # delay histogram for vnet_1 (Unspecified)
system.caches.delayVCHist.vnet_1::mean       0.000704                       # delay histogram for vnet_1 (Unspecified)
system.caches.delayVCHist.vnet_1::stdev      0.064915                       # delay histogram for vnet_1 (Unspecified)
system.caches.delayVCHist.vnet_1         |   110429842     99.99%     99.99% |        4563      0.00%     99.99% |        3785      0.00%     99.99% |        3473      0.00%    100.00% |        4066      0.00%    100.00% |          14      0.00%    100.00% |           0      0.00%    100.00% |           0      0.00%    100.00% |           0      0.00%    100.00% |           0      0.00%    100.00% # delay histogram for vnet_1 (Unspecified)
system.caches.delayVCHist.vnet_1::total     110445743                       # delay histogram for vnet_1 (Unspecified)
system.caches.delayVCHist.vnet_2::bucket_size            1                       # delay histogram for vnet_2 (Unspecified)
system.caches.delayVCHist.vnet_2::max_bucket            9                       # delay histogram for vnet_2 (Unspecified)
system.caches.delayVCHist.vnet_2::samples      3785387                       # delay histogram for vnet_2 (Unspecified)
system.caches.delayVCHist.vnet_2::mean       0.000339                       # delay histogram for vnet_2 (Unspecified)
system.caches.delayVCHist.vnet_2::stdev      0.026044                       # delay histogram for vnet_2 (Unspecified)
system.caches.delayVCHist.vnet_2         |     3784745     99.98%     99.98% |           0      0.00%     99.98% |         642      0.02%    100.00% |           0      0.00%    100.00% |           0      0.00%    100.00% |           0      0.00%    100.00% |           0      0.00%    100.00% |           0      0.00%    100.00% |           0      0.00%    100.00% |           0      0.00%    100.00% # delay histogram for vnet_2 (Unspecified)
system.caches.delayVCHist.vnet_2::total       3785387                       # delay histogram for vnet_2 (Unspecified)
system.caches.L1Cache_Controller.Load    |   153045578     50.15%     50.15% |   152130760     49.85%    100.00% (Unspecified)
system.caches.L1Cache_Controller.Load::total    305176338                       (Unspecified)
system.caches.L1Cache_Controller.Ifetch  |   748723422     50.23%     50.23% |   741939289     49.77%    100.00% (Unspecified)
system.caches.L1Cache_Controller.Ifetch::total   1490662711                       (Unspecified)
system.caches.L1Cache_Controller.Store   |    24828751     51.35%     51.35% |    23524565     48.65%    100.00% (Unspecified)
system.caches.L1Cache_Controller.Store::total     48353316                       (Unspecified)
system.caches.L1Cache_Controller.Inv     |     1124069     49.98%     49.98% |     1125014     50.02%    100.00% (Unspecified)
system.caches.L1Cache_Controller.Inv::total      2249083                       (Unspecified)
system.caches.L1Cache_Controller.L1_Replacement |    26024157     50.01%     50.01% |    26018821     49.99%    100.00% (Unspecified)
system.caches.L1Cache_Controller.L1_Replacement::total     52042978                       (Unspecified)
system.caches.L1Cache_Controller.Fwd_GETX |       17092     49.12%     49.12% |       17705     50.88%    100.00% (Unspecified)
system.caches.L1Cache_Controller.Fwd_GETX::total        34797                       (Unspecified)
system.caches.L1Cache_Controller.Fwd_GETS |      761854     50.74%     50.74% |      739653     49.26%    100.00% (Unspecified)
system.caches.L1Cache_Controller.Fwd_GETS::total      1501507                       (Unspecified)
system.caches.L1Cache_Controller.Data    |        6851     61.78%     61.78% |        4238     38.22%    100.00% (Unspecified)
system.caches.L1Cache_Controller.Data::total        11089                       (Unspecified)
system.caches.L1Cache_Controller.Data_Exclusive |    14021458     49.91%     49.91% |    14073888     50.09%    100.00% (Unspecified)
system.caches.L1Cache_Controller.Data_Exclusive::total     28095346                       (Unspecified)
system.caches.L1Cache_Controller.DataS_fromL1 |      739653     49.26%     49.26% |      761854     50.74%    100.00% (Unspecified)
system.caches.L1Cache_Controller.DataS_fromL1::total      1501507                       (Unspecified)
system.caches.L1Cache_Controller.Data_all_Acks |    11332860     50.16%     50.16% |    11258328     49.84%    100.00% (Unspecified)
system.caches.L1Cache_Controller.Data_all_Acks::total     22591188                       (Unspecified)
system.caches.L1Cache_Controller.Ack     |      385348     50.11%     50.11% |      383702     49.89%    100.00% (Unspecified)
system.caches.L1Cache_Controller.Ack::total       769050                       (Unspecified)
system.caches.L1Cache_Controller.Ack_all |      392199     50.27%     50.27% |      387940     49.73%    100.00% (Unspecified)
system.caches.L1Cache_Controller.Ack_all::total       780139                       (Unspecified)
system.caches.L1Cache_Controller.WB_Ack  |    14249978     50.04%     50.04% |    14226661     49.96%    100.00% (Unspecified)
system.caches.L1Cache_Controller.WB_Ack::total     28476639                       (Unspecified)
system.caches.L1Cache_Controller.NP.Load |    25364419     49.89%     49.89% |    25478634     50.11%    100.00% (Unspecified)
system.caches.L1Cache_Controller.NP.Load::total     50843053                       (Unspecified)
system.caches.L1Cache_Controller.NP.Ifetch |       46480     67.29%     67.29% |       22593     32.71%    100.00% (Unspecified)
system.caches.L1Cache_Controller.NP.Ifetch::total        69073                       (Unspecified)
system.caches.L1Cache_Controller.NP.Store |      621962     54.17%     54.17% |      526298     45.83%    100.00% (Unspecified)
system.caches.L1Cache_Controller.NP.Store::total      1148260                       (Unspecified)
system.caches.L1Cache_Controller.NP.Inv  |      767521     49.94%     49.94% |      769410     50.06%    100.00% (Unspecified)
system.caches.L1Cache_Controller.NP.Inv::total      1536931                       (Unspecified)
system.caches.L1Cache_Controller.I.Load  |       31644     44.93%     44.93% |       38790     55.07%    100.00% (Unspecified)
system.caches.L1Cache_Controller.I.Load::total        70434                       (Unspecified)
system.caches.L1Cache_Controller.I.Ifetch |       26691     54.35%     54.35% |       22422     45.65%    100.00% (Unspecified)
system.caches.L1Cache_Controller.I.Ifetch::total        49113                       (Unspecified)
system.caches.L1Cache_Controller.I.Store |        9625     50.19%     50.19% |        9551     49.81%    100.00% (Unspecified)
system.caches.L1Cache_Controller.I.Store::total        19176                       (Unspecified)
system.caches.L1Cache_Controller.I.L1_Replacement |      305665     50.27%     50.27% |      302323     49.73%    100.00% (Unspecified)
system.caches.L1Cache_Controller.I.L1_Replacement::total       607988                       (Unspecified)
system.caches.L1Cache_Controller.S.Load  |    66099843     50.07%     50.07% |    65927366     49.93%    100.00% (Unspecified)
system.caches.L1Cache_Controller.S.Load::total    132027209                       (Unspecified)
system.caches.L1Cache_Controller.S.Ifetch |   748650251     50.23%     50.23% |   741894274     49.77%    100.00% (Unspecified)
system.caches.L1Cache_Controller.S.Ifetch::total   1490544525                       (Unspecified)
system.caches.L1Cache_Controller.S.Store |      385349     50.11%     50.11% |      383722     49.89%    100.00% (Unspecified)
system.caches.L1Cache_Controller.S.Store::total       769071                       (Unspecified)
system.caches.L1Cache_Controller.S.Inv   |      355138     50.07%     50.07% |      354215     49.93%    100.00% (Unspecified)
system.caches.L1Cache_Controller.S.Inv::total       709353                       (Unspecified)
system.caches.L1Cache_Controller.S.L1_Replacement |    11468514     49.95%     49.95% |    11489837     50.05%    100.00% (Unspecified)
system.caches.L1Cache_Controller.S.L1_Replacement::total     22958351                       (Unspecified)
system.caches.L1Cache_Controller.E.Load  |    47848022     50.19%     50.19% |    47481402     49.81%    100.00% (Unspecified)
system.caches.L1Cache_Controller.E.Load::total     95329424                       (Unspecified)
system.caches.L1Cache_Controller.E.Store |     4063928     49.99%     49.99% |     4065912     50.01%    100.00% (Unspecified)
system.caches.L1Cache_Controller.E.Store::total      8129840                       (Unspecified)
system.caches.L1Cache_Controller.E.Inv   |         674     49.67%     49.67% |         683     50.33%    100.00% (Unspecified)
system.caches.L1Cache_Controller.E.Inv::total         1357                       (Unspecified)
system.caches.L1Cache_Controller.E.L1_Replacement |     9530170     49.85%     49.85% |     9588636     50.15%    100.00% (Unspecified)
system.caches.L1Cache_Controller.E.L1_Replacement::total     19118806                       (Unspecified)
system.caches.L1Cache_Controller.E.Fwd_GETX |        1513     43.35%     43.35% |        1977     56.65%    100.00% (Unspecified)
system.caches.L1Cache_Controller.E.Fwd_GETX::total         3490                       (Unspecified)
system.caches.L1Cache_Controller.E.Fwd_GETS |      424827     50.49%     50.49% |      416627     49.51%    100.00% (Unspecified)
system.caches.L1Cache_Controller.E.Fwd_GETS::total       841454                       (Unspecified)
system.caches.L1Cache_Controller.M.Load  |    13701650     50.92%     50.92% |    13204568     49.08%    100.00% (Unspecified)
system.caches.L1Cache_Controller.M.Load::total     26906218                       (Unspecified)
system.caches.L1Cache_Controller.M.Store |    19747887     51.58%     51.58% |    18539082     48.42%    100.00% (Unspecified)
system.caches.L1Cache_Controller.M.Store::total     38286969                       (Unspecified)
system.caches.L1Cache_Controller.M.Inv   |         735     51.94%     51.94% |         680     48.06%    100.00% (Unspecified)
system.caches.L1Cache_Controller.M.Inv::total         1415                       (Unspecified)
system.caches.L1Cache_Controller.M.L1_Replacement |     4719808     50.44%     50.44% |     4638025     49.56%    100.00% (Unspecified)
system.caches.L1Cache_Controller.M.L1_Replacement::total      9357833                       (Unspecified)
system.caches.L1Cache_Controller.M.Fwd_GETX |       15579     49.76%     49.76% |       15728     50.24%    100.00% (Unspecified)
system.caches.L1Cache_Controller.M.Fwd_GETX::total        31307                       (Unspecified)
system.caches.L1Cache_Controller.M.Fwd_GETS |      337024     51.06%     51.06% |      323019     48.94%    100.00% (Unspecified)
system.caches.L1Cache_Controller.M.Fwd_GETS::total       660043                       (Unspecified)
system.caches.L1Cache_Controller.IS.Inv  |           0      0.00%      0.00% |           6    100.00%    100.00% (Unspecified)
system.caches.L1Cache_Controller.IS.Inv::total            6                       (Unspecified)
system.caches.L1Cache_Controller.IS.Data_Exclusive |    14021458     49.91%     49.91% |    14073888     50.09%    100.00% (Unspecified)
system.caches.L1Cache_Controller.IS.Data_Exclusive::total     28095346                       (Unspecified)
system.caches.L1Cache_Controller.IS.DataS_fromL1 |      739653     49.26%     49.26% |      761848     50.74%    100.00% (Unspecified)
system.caches.L1Cache_Controller.IS.DataS_fromL1::total      1501501                       (Unspecified)
system.caches.L1Cache_Controller.IS.Data_all_Acks |    10708123     49.96%     49.96% |    10726697     50.04%    100.00% (Unspecified)
system.caches.L1Cache_Controller.IS.Data_all_Acks::total     21434820                       (Unspecified)
system.caches.L1Cache_Controller.IM.Data |        6851     61.78%     61.78% |        4238     38.22%    100.00% (Unspecified)
system.caches.L1Cache_Controller.IM.Data::total        11089                       (Unspecified)
system.caches.L1Cache_Controller.IM.Data_all_Acks |      624737     54.03%     54.03% |      531631     45.97%    100.00% (Unspecified)
system.caches.L1Cache_Controller.IM.Data_all_Acks::total      1156368                       (Unspecified)
system.caches.L1Cache_Controller.SM.Inv  |           1      4.76%      4.76% |          20     95.24%    100.00% (Unspecified)
system.caches.L1Cache_Controller.SM.Inv::total           21                       (Unspecified)
system.caches.L1Cache_Controller.SM.Ack  |      385348     50.11%     50.11% |      383702     49.89%    100.00% (Unspecified)
system.caches.L1Cache_Controller.SM.Ack::total       769050                       (Unspecified)
system.caches.L1Cache_Controller.SM.Ack_all |      392199     50.27%     50.27% |      387940     49.73%    100.00% (Unspecified)
system.caches.L1Cache_Controller.SM.Ack_all::total       780139                       (Unspecified)
system.caches.L1Cache_Controller.IS_I.DataS_fromL1 |           0      0.00%      0.00% |           6    100.00%    100.00% (Unspecified)
system.caches.L1Cache_Controller.IS_I.DataS_fromL1::total            6                       (Unspecified)
system.caches.L1Cache_Controller.M_I.Fwd_GETS |           3     30.00%     30.00% |           7     70.00%    100.00% (Unspecified)
system.caches.L1Cache_Controller.M_I.Fwd_GETS::total           10                       (Unspecified)
system.caches.L1Cache_Controller.M_I.WB_Ack |    14249975     50.04%     50.04% |    14226654     49.96%    100.00% (Unspecified)
system.caches.L1Cache_Controller.M_I.WB_Ack::total     28476629                       (Unspecified)
system.caches.L1Cache_Controller.SINK_WB_ACK.WB_Ack |           3     30.00%     30.00% |           7     70.00%    100.00% (Unspecified)
system.caches.L1Cache_Controller.SINK_WB_ACK.WB_Ack::total           10                       (Unspecified)
system.caches.Directory_Controller.Fetch     12690703      0.00%      0.00% (Unspecified)
system.caches.Directory_Controller.Data       3603161      0.00%      0.00% (Unspecified)
system.caches.Directory_Controller.Memory_Data     12690703      0.00%      0.00% (Unspecified)
system.caches.Directory_Controller.Memory_Ack      3603161      0.00%      0.00% (Unspecified)
system.caches.Directory_Controller.CleanReplacement      8956470      0.00%      0.00% (Unspecified)
system.caches.Directory_Controller.I.Fetch     12690703      0.00%      0.00% (Unspecified)
system.caches.Directory_Controller.M.Data      3603161      0.00%      0.00% (Unspecified)
system.caches.Directory_Controller.M.CleanReplacement      8956470      0.00%      0.00% (Unspecified)
system.caches.Directory_Controller.IM.Memory_Data     12690703      0.00%      0.00% (Unspecified)
system.caches.Directory_Controller.MI.Memory_Ack      3603161      0.00%      0.00% (Unspecified)
system.caches.L2Cache_Controller.L1_GET_INSTR |       10740      9.08%      9.08% |       17851     15.10%     24.18% |       15609     13.20%     37.38% |        7122      6.02%     43.40% |       12286     10.39%     53.79% |       17187     14.54%     68.33% |       19307     16.33%     84.66% |       18143     15.34%    100.00% (Unspecified)
system.caches.L2Cache_Controller.L1_GET_INSTR::total       118245                       (Unspecified)
system.caches.L2Cache_Controller.L1_GETS |     6376995     12.52%     12.52% |     6327769     12.43%     24.95% |     6381930     12.53%     37.49% |     6371543     12.51%     50.00% |     6432580     12.63%     62.63% |     6376530     12.52%     75.16% |     6288387     12.35%     87.51% |     6361135     12.49%    100.00% (Unspecified)
system.caches.L2Cache_Controller.L1_GETS::total     50916869                       (Unspecified)
system.caches.L2Cache_Controller.L1_GETX |      147727     12.65%     12.65% |      148565     12.73%     25.38% |      137190     11.75%     37.13% |      152502     13.06%     50.19% |      139756     11.97%     62.16% |      149857     12.84%     75.00% |      147035     12.59%     87.59% |      144842     12.41%    100.00% (Unspecified)
system.caches.L2Cache_Controller.L1_GETX::total      1167474                       (Unspecified)
system.caches.L2Cache_Controller.L1_UPGRADE |       94084     12.19%     12.19% |       98324     12.74%     24.93% |       98524     12.77%     37.70% |       96961     12.56%     50.26% |       94467     12.24%     62.50% |       92998     12.05%     74.55% |      102941     13.34%     87.89% |       93486     12.11%    100.00% (Unspecified)
system.caches.L2Cache_Controller.L1_UPGRADE::total       771785                       (Unspecified)
system.caches.L2Cache_Controller.L1_PUTX |     3571141     12.54%     12.54% |     3572460     12.55%     25.09% |     3552359     12.47%     37.56% |     3569653     12.54%     50.10% |     3553414     12.48%     62.57% |     3562768     12.51%     75.09% |     3537091     12.42%     87.51% |     3557763     12.49%    100.00% (Unspecified)
system.caches.L2Cache_Controller.L1_PUTX::total     28476649                       (Unspecified)
system.caches.L2Cache_Controller.L2_Replacement |      450419     12.50%     12.50% |      449730     12.48%     24.99% |      450608     12.51%     37.50% |      450828     12.51%     50.01% |      449666     12.48%     62.49% |      449653     12.48%     74.98% |      449655     12.48%     87.46% |      451780     12.54%    100.00% (Unspecified)
system.caches.L2Cache_Controller.L2_Replacement::total      3602339                       (Unspecified)
system.caches.L2Cache_Controller.L2_Replacement_clean |     1121362     12.52%     12.52% |     1119341     12.50%     25.02% |     1119472     12.50%     37.51% |     1120312     12.51%     50.02% |     1118717     12.49%     62.51% |     1119066     12.49%     75.00% |     1118622     12.49%     87.49% |     1120400     12.51%    100.00% (Unspecified)
system.caches.L2Cache_Controller.L2_Replacement_clean::total      8957292                       (Unspecified)
system.caches.L2Cache_Controller.Mem_Data |     1588165     12.51%     12.51% |     1585455     12.49%     25.01% |     1586464     12.50%     37.51% |     1587524     12.51%     50.02% |     1584767     12.49%     62.51% |     1585103     12.49%     75.00% |     1584661     12.49%     87.48% |     1588564     12.52%    100.00% (Unspecified)
system.caches.L2Cache_Controller.Mem_Data::total     12690703                       (Unspecified)
system.caches.L2Cache_Controller.Mem_Ack |     1571781     12.51%     12.51% |     1569071     12.49%     25.01% |     1570080     12.50%     37.51% |     1571140     12.51%     50.02% |     1568383     12.49%     62.51% |     1568719     12.49%     75.00% |     1568277     12.49%     87.48% |     1572180     12.52%    100.00% (Unspecified)
system.caches.L2Cache_Controller.Mem_Ack::total     12559631                       (Unspecified)
system.caches.L2Cache_Controller.WB_Data |       81964     12.39%     12.39% |       84554     12.78%     25.17% |       84568     12.78%     37.96% |       83039     12.55%     50.51% |       80802     12.22%     62.73% |       79056     11.95%     74.68% |       87743     13.26%     87.95% |       79737     12.05%    100.00% (Unspecified)
system.caches.L2Cache_Controller.WB_Data::total       661463                       (Unspecified)
system.caches.L2Cache_Controller.WB_Data_clean |      103237     12.27%     12.27% |      103245     12.27%     24.54% |      112543     13.37%     37.91% |      102631     12.20%     50.11% |      101750     12.09%     62.20% |      102524     12.18%     74.39% |      112261     13.34%     87.73% |      103268     12.27%    100.00% (Unspecified)
system.caches.L2Cache_Controller.WB_Data_clean::total       841459                       (Unspecified)
system.caches.L2Cache_Controller.Ack     |       89234     12.25%     12.25% |       89409     12.28%     24.53% |       98260     13.49%     38.02% |       87949     12.08%     50.10% |       87805     12.06%     62.16% |       88347     12.13%     74.29% |       98337     13.50%     87.79% |       88908     12.21%    100.00% (Unspecified)
system.caches.L2Cache_Controller.Ack::total       728249                       (Unspecified)
system.caches.L2Cache_Controller.Ack_all |       90684     12.27%     12.27% |       91061     12.32%     24.58% |       99639     13.48%     38.06% |       89331     12.08%     50.15% |       89029     12.04%     62.19% |       89586     12.12%     74.31% |       99399     13.45%     87.75% |       90551     12.25%    100.00% (Unspecified)
system.caches.L2Cache_Controller.Ack_all::total       739280                       (Unspecified)
system.caches.L2Cache_Controller.Unblock |      184988     12.32%     12.32% |      187628     12.50%     24.82% |      196968     13.12%     37.93% |      185550     12.36%     50.29% |      182371     12.15%     62.44% |      181397     12.08%     74.52% |      199849     13.31%     87.83% |      182756     12.17%    100.00% (Unspecified)
system.caches.L2Cache_Controller.Unblock::total      1501507                       (Unspecified)
system.caches.L2Cache_Controller.Exclusive_Unblock |     3761008     12.52%     12.52% |     3771668     12.56%     25.08% |     3753515     12.50%     37.58% |     3770978     12.56%     50.14% |     3740036     12.45%     62.59% |     3748579     12.48%     75.07% |     3741142     12.46%     87.53% |     3744927     12.47%    100.00% (Unspecified)
system.caches.L2Cache_Controller.Exclusive_Unblock::total     30031853                       (Unspecified)
system.caches.L2Cache_Controller.NP.L1_GET_INSTR |        4453     12.96%     12.96% |        4828     14.05%     27.01% |        4238     12.33%     39.34% |        3873     11.27%     50.61% |        4378     12.74%     63.35% |        4184     12.18%     75.53% |        4005     11.65%     87.18% |        4405     12.82%    100.00% (Unspecified)
system.caches.L2Cache_Controller.NP.L1_GET_INSTR::total        34364                       (Unspecified)
system.caches.L2Cache_Controller.NP.L1_GETS |     1498194     12.51%     12.51% |     1495402     12.49%     25.00% |     1497062     12.50%     37.50% |     1498377     12.51%     50.01% |     1495245     12.49%     62.50% |     1495848     12.49%     74.99% |     1495663     12.49%     87.48% |     1498814     12.52%    100.00% (Unspecified)
system.caches.L2Cache_Controller.NP.L1_GETS::total     11974605                       (Unspecified)
system.caches.L2Cache_Controller.NP.L1_GETX |       85518     12.54%     12.54% |       85225     12.50%     25.05% |       85164     12.49%     37.54% |       85274     12.51%     50.05% |       85144     12.49%     62.54% |       85071     12.48%     75.01% |       84993     12.47%     87.48% |       85345     12.52%    100.00% (Unspecified)
system.caches.L2Cache_Controller.NP.L1_GETX::total       681734                       (Unspecified)
system.caches.L2Cache_Controller.SS.L1_GET_INSTR |        4676      6.41%      6.41% |       11387     15.60%     22.00% |       10122     13.86%     35.87% |        1993      2.73%     38.60% |        6440      8.82%     47.42% |       11678     16.00%     63.42% |       14153     19.39%     82.80% |       12555     17.20%    100.00% (Unspecified)
system.caches.L2Cache_Controller.SS.L1_GET_INSTR::total        73004                       (Unspecified)
system.caches.L2Cache_Controller.SS.L1_GETS |     2672614     12.54%     12.54% |     2615153     12.27%     24.81% |     2666813     12.51%     37.32% |     2664393     12.50%     49.82% |     2744329     12.87%     62.69% |     2689203     12.62%     75.31% |     2591198     12.16%     87.47% |     2671679     12.53%    100.00% (Unspecified)
system.caches.L2Cache_Controller.SS.L1_GETS::total     21315382                       (Unspecified)
system.caches.L2Cache_Controller.SS.L1_GETX |        2645     23.85%     23.85% |        1032      9.31%     33.16% |        1068      9.63%     42.79% |        1059      9.55%     52.34% |        1077      9.71%     62.05% |        1014      9.14%     71.20% |        2124     19.15%     90.35% |        1070      9.65%    100.00% (Unspecified)
system.caches.L2Cache_Controller.SS.L1_GETX::total        11089                       (Unspecified)
system.caches.L2Cache_Controller.SS.L1_UPGRADE |       94076     12.23%     12.23% |       98322     12.78%     25.02% |       98519     12.81%     37.83% |       96958     12.61%     50.44% |       94466     12.28%     62.72% |       92996     12.09%     74.81% |      100231     13.03%     87.84% |       93482     12.16%    100.00% (Unspecified)
system.caches.L2Cache_Controller.SS.L1_UPGRADE::total       769050                       (Unspecified)
system.caches.L2Cache_Controller.SS.L1_PUTX |           2     20.00%     20.00% |           2     20.00%     40.00% |           0      0.00%     40.00% |           3     30.00%     70.00% |           0      0.00%     70.00% |           0      0.00%     70.00% |           2     20.00%     90.00% |           1     10.00%    100.00% (Unspecified)
system.caches.L2Cache_Controller.SS.L1_PUTX::total           10                       (Unspecified)
system.caches.L2Cache_Controller.SS.L2_Replacement |       12890     12.72%     12.72% |       12519     12.35%     25.07% |       12576     12.41%     37.49% |       12569     12.40%     49.89% |       12650     12.48%     62.37% |       12606     12.44%     74.81% |       12719     12.55%     87.36% |       12804     12.64%    100.00% (Unspecified)
system.caches.L2Cache_Controller.SS.L2_Replacement::total       101333                       (Unspecified)
system.caches.L2Cache_Controller.SS.L2_Replacement_clean |       77604     12.19%     12.19% |       78343     12.31%     24.50% |       86912     13.65%     38.15% |       76609     12.03%     50.18% |       76258     11.98%     62.16% |       76750     12.06%     74.22% |       86552     13.60%     87.82% |       77562     12.18%    100.00% (Unspecified)
system.caches.L2Cache_Controller.SS.L2_Replacement_clean::total       636590                       (Unspecified)
system.caches.L2Cache_Controller.M.L1_GETS |     2021100     12.54%     12.54% |     2029478     12.59%     25.13% |     2020909     12.54%     37.66% |     2023179     12.55%     50.21% |     2010598     12.47%     62.68% |     2009975     12.47%     75.15% |     1998296     12.40%     87.55% |     2007832     12.45%    100.00% (Unspecified)
system.caches.L2Cache_Controller.M.L1_GETS::total     16121367                       (Unspecified)
system.caches.L2Cache_Controller.M.L1_GETX |       57088     12.98%     12.98% |       53118     12.08%     25.06% |       49072     11.16%     36.21% |       52681     11.98%     48.19% |       51609     11.73%     59.92% |       61792     14.05%     73.97% |       58020     13.19%     87.16% |       56457     12.84%    100.00% (Unspecified)
system.caches.L2Cache_Controller.M.L1_GETX::total       439837                       (Unspecified)
system.caches.L2Cache_Controller.M.L2_Replacement |      437437     12.50%     12.50% |      437127     12.49%     24.99% |      437951     12.51%     37.50% |      438192     12.52%     50.02% |      436966     12.48%     62.50% |      436932     12.48%     74.98% |      436840     12.48%     87.46% |      438897     12.54%    100.00% (Unspecified)
system.caches.L2Cache_Controller.M.L2_Replacement::total      3500342                       (Unspecified)
system.caches.L2Cache_Controller.M.L2_Replacement_clean |     1043447     12.54%     12.54% |     1040712     12.51%     25.05% |     1032347     12.41%     37.46% |     1043497     12.54%     50.01% |     1042207     12.53%     62.54% |     1042018     12.53%     75.06% |     1031883     12.40%     87.47% |     1042483     12.53%    100.00% (Unspecified)
system.caches.L2Cache_Controller.M.L2_Replacement_clean::total      8318594                       (Unspecified)
system.caches.L2Cache_Controller.MT.L1_GETS |      184988     12.32%     12.32% |      187628     12.50%     24.82% |      196968     13.12%     37.93% |      185550     12.36%     50.29% |      182371     12.15%     62.44% |      181397     12.08%     74.52% |      199849     13.31%     87.83% |      182756     12.17%    100.00% (Unspecified)
system.caches.L2Cache_Controller.MT.L1_GETS::total      1501507                       (Unspecified)
system.caches.L2Cache_Controller.MT.L1_GETX |        2475      7.11%      7.11% |        9188     26.40%     33.52% |        1886      5.42%     38.94% |       13487     38.76%     77.70% |        1922      5.52%     83.22% |        1980      5.69%     88.91% |        1896      5.45%     94.36% |        1963      5.64%    100.00% (Unspecified)
system.caches.L2Cache_Controller.MT.L1_GETX::total        34797                       (Unspecified)
system.caches.L2Cache_Controller.MT.L1_PUTX |     3571137     12.54%     12.54% |     3572456     12.55%     25.09% |     3552359     12.47%     37.56% |     3569647     12.54%     50.10% |     3553414     12.48%     62.57% |     3562768     12.51%     75.09% |     3537087     12.42%     87.51% |     3557761     12.49%    100.00% (Unspecified)
system.caches.L2Cache_Controller.MT.L1_PUTX::total     28476629                       (Unspecified)
system.caches.L2Cache_Controller.MT.L2_Replacement |          92     13.86%     13.86% |          84     12.65%     26.51% |          81     12.20%     38.70% |          67     10.09%     48.80% |          50      7.53%     56.33% |         115     17.32%     73.64% |          96     14.46%     88.10% |          79     11.90%    100.00% (Unspecified)
system.caches.L2Cache_Controller.MT.L2_Replacement::total          664                       (Unspecified)
system.caches.L2Cache_Controller.MT.L2_Replacement_clean |         311     14.75%     14.75% |         286     13.57%     28.32% |         213     10.10%     38.43% |         206      9.77%     48.20% |         252     11.95%     60.15% |         298     14.14%     74.29% |         187      8.87%     83.16% |         355     16.84%    100.00% (Unspecified)
system.caches.L2Cache_Controller.MT.L2_Replacement_clean::total         2108                       (Unspecified)
system.caches.L2Cache_Controller.M_I.L1_GET_INSTR |          15     25.86%     25.86% |           3      5.17%     31.03% |          10     17.24%     48.28% |          15     25.86%     74.14% |          10     17.24%     91.38% |           5      8.62%    100.00% |           0      0.00%    100.00% |           0      0.00%    100.00% (Unspecified)
system.caches.L2Cache_Controller.M_I.L1_GET_INSTR::total           58                       (Unspecified)
system.caches.L2Cache_Controller.M_I.L1_GETS |           4     10.81%     10.81% |           7     18.92%     29.73% |           7     18.92%     48.65% |           0      0.00%     48.65% |           9     24.32%     72.97% |           4     10.81%     83.78% |           2      5.41%     89.19% |           4     10.81%    100.00% (Unspecified)
system.caches.L2Cache_Controller.M_I.L1_GETS::total           37                       (Unspecified)
system.caches.L2Cache_Controller.M_I.L1_GETX |           1      8.33%      8.33% |           0      0.00%      8.33% |           0      0.00%      8.33% |           0      0.00%      8.33% |           4     33.33%     41.67% |           0      0.00%     41.67% |           1      8.33%     50.00% |           6     50.00%    100.00% (Unspecified)
system.caches.L2Cache_Controller.M_I.L1_GETX::total           12                       (Unspecified)
system.caches.L2Cache_Controller.M_I.Mem_Ack |     1571781     12.51%     12.51% |     1569071     12.49%     25.01% |     1570080     12.50%     37.51% |     1571140     12.51%     50.02% |     1568383     12.49%     62.51% |     1568719     12.49%     75.00% |     1568277     12.49%     87.48% |     1572180     12.52%    100.00% (Unspecified)
system.caches.L2Cache_Controller.M_I.Mem_Ack::total     12559631                       (Unspecified)
system.caches.L2Cache_Controller.MT_I.WB_Data |          84     14.17%     14.17% |          77     12.98%     27.15% |          68     11.47%     38.62% |          61     10.29%     48.90% |          46      7.76%     56.66% |          99     16.69%     73.36% |          89     15.01%     88.36% |          69     11.64%    100.00% (Unspecified)
system.caches.L2Cache_Controller.MT_I.WB_Data::total          593                       (Unspecified)
system.caches.L2Cache_Controller.MT_I.Ack_all |           8     11.27%     11.27% |           7      9.86%     21.13% |          13     18.31%     39.44% |           6      8.45%     47.89% |           4      5.63%     53.52% |          16     22.54%     76.06% |           7      9.86%     85.92% |          10     14.08%    100.00% (Unspecified)
system.caches.L2Cache_Controller.MT_I.Ack_all::total           71                       (Unspecified)
system.caches.L2Cache_Controller.MCT_I.WB_Data |         129     15.69%     15.69% |          94     11.44%     27.13% |          75      9.12%     36.25% |          59      7.18%     43.43% |         135     16.42%     59.85% |          84     10.22%     70.07% |          66      8.03%     78.10% |         180     21.90%    100.00% (Unspecified)
system.caches.L2Cache_Controller.MCT_I.WB_Data::total          822                       (Unspecified)
system.caches.L2Cache_Controller.MCT_I.Ack_all |         182     14.15%     14.15% |         192     14.93%     29.08% |         138     10.73%     39.81% |         147     11.43%     51.24% |         117      9.10%     60.34% |         214     16.64%     76.98% |         121      9.41%     86.39% |         175     13.61%    100.00% (Unspecified)
system.caches.L2Cache_Controller.MCT_I.Ack_all::total         1286                       (Unspecified)
system.caches.L2Cache_Controller.I_I.L1_GET_INSTR |           0      0.00%      0.00% |           0      0.00%      0.00% |           0      0.00%      0.00% |           1    100.00%    100.00% |           0      0.00%    100.00% |           0      0.00%    100.00% |           0      0.00%    100.00% |           0      0.00%    100.00% (Unspecified)
system.caches.L2Cache_Controller.I_I.L1_GET_INSTR::total            1                       (Unspecified)
system.caches.L2Cache_Controller.I_I.Ack |       76344     12.18%     12.18% |       76890     12.26%     24.44% |       85684     13.67%     38.11% |       75380     12.02%     50.13% |       75155     11.99%     62.12% |       75741     12.08%     74.20% |       85618     13.66%     87.86% |       76104     12.14%    100.00% (Unspecified)
system.caches.L2Cache_Controller.I_I.Ack::total       626916                       (Unspecified)
system.caches.L2Cache_Controller.I_I.Ack_all |       77604     12.19%     12.19% |       78343     12.31%     24.50% |       86912     13.65%     38.15% |       76609     12.03%     50.18% |       76258     11.98%     62.16% |       76750     12.06%     74.22% |       86552     13.60%     87.82% |       77562     12.18%    100.00% (Unspecified)
system.caches.L2Cache_Controller.I_I.Ack_all::total       636590                       (Unspecified)
system.caches.L2Cache_Controller.S_I.Ack |       12890     12.72%     12.72% |       12519     12.35%     25.07% |       12576     12.41%     37.49% |       12569     12.40%     49.89% |       12650     12.48%     62.37% |       12606     12.44%     74.81% |       12719     12.55%     87.36% |       12804     12.64%    100.00% (Unspecified)
system.caches.L2Cache_Controller.S_I.Ack::total       101333                       (Unspecified)
system.caches.L2Cache_Controller.S_I.Ack_all |       12890     12.72%     12.72% |       12519     12.35%     25.07% |       12576     12.41%     37.49% |       12569     12.40%     49.89% |       12650     12.48%     62.37% |       12606     12.44%     74.81% |       12719     12.55%     87.36% |       12804     12.64%    100.00% (Unspecified)
system.caches.L2Cache_Controller.S_I.Ack_all::total       101333                       (Unspecified)
system.caches.L2Cache_Controller.ISS.L1_GETS |          88     14.06%     14.06% |          97     15.50%     29.55% |         165     26.36%     55.91% |          37      5.91%     61.82% |          25      3.99%     65.81% |          97     15.50%     81.31% |          81     12.94%     94.25% |          36      5.75%    100.00% (Unspecified)
system.caches.L2Cache_Controller.ISS.L1_GETS::total          626                       (Unspecified)
system.caches.L2Cache_Controller.ISS.Mem_Data |     1498106     12.51%     12.51% |     1495305     12.49%     25.00% |     1496897     12.50%     37.50% |     1498340     12.51%     50.01% |     1495220     12.49%     62.50% |     1495751     12.49%     74.99% |     1495582     12.49%     87.48% |     1498778     12.52%    100.00% (Unspecified)
system.caches.L2Cache_Controller.ISS.Mem_Data::total     11973979                       (Unspecified)
system.caches.L2Cache_Controller.IS.L1_GET_INSTR |        1596     14.75%     14.75% |        1633     15.10%     29.85% |        1239     11.45%     41.30% |        1240     11.46%     52.76% |        1458     13.48%     66.24% |        1320     12.20%     78.44% |        1149     10.62%     89.06% |        1183     10.94%    100.00% (Unspecified)
system.caches.L2Cache_Controller.IS.L1_GET_INSTR::total        10818                       (Unspecified)
system.caches.L2Cache_Controller.IS.Mem_Data |        4541     12.98%     12.98% |        4925     14.08%     27.05% |        4403     12.58%     39.64% |        3910     11.17%     50.81% |        4403     12.58%     63.40% |        4281     12.23%     75.63% |        4086     11.68%     87.31% |        4441     12.69%    100.00% (Unspecified)
system.caches.L2Cache_Controller.IS.Mem_Data::total        34990                       (Unspecified)
system.caches.L2Cache_Controller.IM.L1_GETS |           0      0.00%      0.00% |           0      0.00%      0.00% |           0      0.00%      0.00% |           0      0.00%      0.00% |           0      0.00%      0.00% |           0      0.00%      0.00% |           2    100.00%    100.00% |           0      0.00%    100.00% (Unspecified)
system.caches.L2Cache_Controller.IM.L1_GETS::total            2                       (Unspecified)
system.caches.L2Cache_Controller.IM.L1_GETX |           0      0.00%      0.00% |           1     25.00%     25.00% |           0      0.00%     25.00% |           1     25.00%     50.00% |           0      0.00%     50.00% |           0      0.00%     50.00% |           1     25.00%     75.00% |           1     25.00%    100.00% (Unspecified)
system.caches.L2Cache_Controller.IM.L1_GETX::total            4                       (Unspecified)
system.caches.L2Cache_Controller.IM.Mem_Data |       85518     12.54%     12.54% |       85225     12.50%     25.05% |       85164     12.49%     37.54% |       85274     12.51%     50.05% |       85144     12.49%     62.54% |       85071     12.48%     75.01% |       84993     12.47%     87.48% |       85345     12.52%    100.00% (Unspecified)
system.caches.L2Cache_Controller.IM.Mem_Data::total       681734                       (Unspecified)
system.caches.L2Cache_Controller.SS_MB.L1_GETS |           2      0.06%      0.06% |           0      0.00%      0.06% |           3      0.09%      0.15% |           1      0.03%      0.18% |           0      0.00%      0.18% |           0      0.00%      0.18% |        3292     99.61%     99.79% |           7      0.21%    100.00% (Unspecified)
system.caches.L2Cache_Controller.SS_MB.L1_GETS::total         3305                       (Unspecified)
system.caches.L2Cache_Controller.SS_MB.L1_UPGRADE |           5     23.81%     23.81% |           0      0.00%     23.81% |           5     23.81%     47.62% |           3     14.29%     61.90% |           1      4.76%     66.67% |           1      4.76%     71.43% |           3     14.29%     85.71% |           3     14.29%    100.00% (Unspecified)
system.caches.L2Cache_Controller.SS_MB.L1_UPGRADE::total           21                       (Unspecified)
system.caches.L2Cache_Controller.SS_MB.Exclusive_Unblock |       96721     12.40%     12.40% |       99354     12.74%     25.13% |       99587     12.77%     37.90% |       98017     12.56%     50.46% |       95543     12.25%     62.71% |       94010     12.05%     74.76% |      102355     13.12%     87.88% |       94552     12.12%    100.00% (Unspecified)
[...]
system.timingCpu0.exec_context.thread_0.statExecutedInstType::IprAccess            0      0.00%    100.00% # Class of executed instruction. (Count)
system.timingCpu0.exec_context.thread_0.statExecutedInstType::InstPrefetch            0      0.00%    100.00% # Class of executed instruction. (Count)
system.timingCpu0.exec_context.thread_0.statExecutedInstType::total    928787475                       # Class of executed instruction. (Count)
system.timingCpu0.mmu.dtb.rdAccesses        156168374                       # TLB accesses on read requests (Count)
system.timingCpu0.mmu.dtb.wrAccesses         16622865                       # TLB accesses on write requests (Count)
system.timingCpu0.mmu.dtb.rdMisses            1757230                       # TLB misses on read requests (Count)
system.timingCpu0.mmu.dtb.wrMisses               8246                       # TLB misses on write requests (Count)
system.timingCpu0.mmu.dtb.walker.power_state.pwrStateResidencyTicks::UNDEFINED 155885284919501                       # Cumulative time (in ticks) in various power states (Tick)
system.timingCpu0.mmu.itb.rdAccesses                0                       # TLB accesses on read requests (Count)
system.timingCpu0.mmu.itb.wrAccesses        748728110                       # TLB accesses on write requests (Count)
system.timingCpu0.mmu.itb.rdMisses                  0                       # TLB misses on read requests (Count)
system.timingCpu0.mmu.itb.wrMisses               4688                       # TLB misses on write requests (Count)
system.timingCpu0.mmu.itb.walker.power_state.pwrStateResidencyTicks::UNDEFINED 155885284919501                       # Cumulative time (in ticks) in various power states (Tick)
system.timingCpu0.power_state.numTransitions           14                       # Number of power state transitions (Count)
system.timingCpu0.power_state.ticksClkGated::samples            7                       # Distribution of time spent in the clock gated state (Tick)
system.timingCpu0.power_state.ticksClkGated::mean 489326071.428571                       # Distribution of time spent in the clock gated state (Tick)
system.timingCpu0.power_state.ticksClkGated::stdev 380705864.945184                       # Distribution of time spent in the clock gated state (Tick)
system.timingCpu0.power_state.ticksClkGated::1000-5e+10            7    100.00%    100.00% # Distribution of time spent in the clock gated state (Tick)
system.timingCpu0.power_state.ticksClkGated::min_value     89075750                       # Distribution of time spent in the clock gated state (Tick)
system.timingCpu0.power_state.ticksClkGated::max_value    997618250                       # Distribution of time spent in the clock gated state (Tick)
system.timingCpu0.power_state.ticksClkGated::total            7                       # Distribution of time spent in the clock gated state (Tick)
system.timingCpu0.power_state.pwrStateResidencyTicks::ON 1270138820251                       # Cumulative time (in ticks) in various power states (Tick)
system.timingCpu0.power_state.pwrStateResidencyTicks::CLK_GATED   3425282500                       # Cumulative time (in ticks) in various power states (Tick)
system.timingCpu0.power_state.pwrStateResidencyTicks::OFF 154611720816750                       # Cumulative time (in ticks) in various power states (Tick)
system.timingCpu0.thread_0.numInsts                 0                       # Number of Instructions committed (Count)
system.timingCpu0.thread_0.numOps                   0                       # Number of Ops committed (Count)
system.timingCpu0.thread_0.numMemRefs               0                       # Number of Memory References (Count)
system.timingCpu1.numCycles                5099913603                       # Number of cpu cycles simulated (Cycle)
system.timingCpu1.numWorkItemsStarted               0                       # Number of work items this cpu started (Count)
system.timingCpu1.numWorkItemsCompleted             0                       # Number of work items this cpu completed (Count)
system.timingCpu1.exec_context.thread_0.numInsts    564016233                       # Number of instructions committed (Count)
system.timingCpu1.exec_context.thread_0.numOps    917306451                       # Number of ops (including micro ops) committed (Count)
system.timingCpu1.exec_context.thread_0.numIntAluAccesses    845649471                       # Number of integer alu accesses (Count)
system.timingCpu1.exec_context.thread_0.numFpAluAccesses     80673972                       # Number of float alu accesses (Count)
system.timingCpu1.exec_context.thread_0.numVecAluAccesses            0                       # Number of vector alu accesses (Count)
system.timingCpu1.exec_context.thread_0.numCallsReturns       250236                       # Number of times a function call or return occured (Count)
system.timingCpu1.exec_context.thread_0.numCondCtrlInsts     91786276                       # Number of instructions that are conditional controls (Count)
system.timingCpu1.exec_context.thread_0.numIntInsts    845649471                       # Number of integer instructions (Count)
system.timingCpu1.exec_context.thread_0.numFpInsts     80673972                       # Number of float instructions (Count)
system.timingCpu1.exec_context.thread_0.numVecInsts            0                       # Number of vector instructions (Count)
system.timingCpu1.exec_context.thread_0.numIntRegReads   1178219680                       # Number of times the integer registers were read (Count)
system.timingCpu1.exec_context.thread_0.numIntRegWrites    618196417                       # Number of times the integer registers were written (Count)
system.timingCpu1.exec_context.thread_0.numFpRegReads     92504683                       # Number of times the floating registers were read (Count)
system.timingCpu1.exec_context.thread_0.numFpRegWrites     74472674                       # Number of times the floating registers were written (Count)
system.timingCpu1.exec_context.thread_0.numVecRegReads            0                       # Number of times the vector registers were read (Count)
system.timingCpu1.exec_context.thread_0.numVecRegWrites            0                       # Number of times the vector registers were written (Count)
system.timingCpu1.exec_context.thread_0.numVecPredRegReads            0                       # Number of times the predicate registers were read (Count)
system.timingCpu1.exec_context.thread_0.numVecPredRegWrites            0                       # Number of times the predicate registers were written (Count)
system.timingCpu1.exec_context.thread_0.numCCRegReads    613908781                       # Number of times the CC registers were read (Count)
system.timingCpu1.exec_context.thread_0.numCCRegWrites    403679168                       # Number of times the CC registers were written (Count)
system.timingCpu1.exec_context.thread_0.numMiscRegReads    361038533                       # Number of times the Misc registers were read (Count)
system.timingCpu1.exec_context.thread_0.numMiscRegWrites        47621                       # Number of times the Misc registers were written (Count)
system.timingCpu1.exec_context.thread_0.numMemRefs    168787012                       # Number of memory refs (Count)
system.timingCpu1.exec_context.thread_0.numLoadInsts    153436438                       # Number of load instructions (Count)
system.timingCpu1.exec_context.thread_0.numStoreInsts     15350574                       # Number of store instructions (Count)
system.timingCpu1.exec_context.thread_0.numIdleCycles 49267512.990262                       # Number of idle cycles (Cycle)
system.timingCpu1.exec_context.thread_0.numBusyCycles 5050646090.009738                       # Number of busy cycles (Cycle)
system.timingCpu1.exec_context.thread_0.notIdleFraction     0.990340                       # Percentage of non-idle cycles (Ratio)
system.timingCpu1.exec_context.thread_0.idleFraction     0.009660                       # Percentage of idle cycles (Ratio)
system.timingCpu1.exec_context.thread_0.numBranches     96112506                       # Number of branches fetched (Count)
system.timingCpu1.exec_context.thread_0.statExecutedInstType::No_OpClass       416207      0.05%      0.05% # Class of executed instruction. (Count)
system.timingCpu1.exec_context.thread_0.statExecutedInstType::IntAlu    690127899     75.23%     75.27% # Class of executed instruction. (Count)
system.timingCpu1.exec_context.thread_0.statExecutedInstType::IntMult        31341      0.00%     75.28% # Class of executed instruction. (Count)
system.timingCpu1.exec_context.thread_0.statExecutedInstType::IntDiv        61427      0.01%     75.28% # Class of executed instruction. (Count)
system.timingCpu1.exec_context.thread_0.statExecutedInstType::FloatAdd     20756710      2.26%     77.55% # Class of executed instruction. (Count)
system.timingCpu1.exec_context.thread_0.statExecutedInstType::FloatCmp            0      0.00%     77.55% # Class of executed instruction. (Count)
system.timingCpu1.exec_context.thread_0.statExecutedInstType::FloatCvt          128      0.00%     77.55% # Class of executed instruction. (Count)
system.timingCpu1.exec_context.thread_0.statExecutedInstType::FloatMult            0      0.00%     77.55% # Class of executed instruction. (Count)
system.timingCpu1.exec_context.thread_0.statExecutedInstType::FloatMultAcc            0      0.00%     77.55% # Class of executed instruction. (Count)
system.timingCpu1.exec_context.thread_0.statExecutedInstType::FloatDiv            0      0.00%     77.55% # Class of executed instruction. (Count)
system.timingCpu1.exec_context.thread_0.statExecutedInstType::FloatMisc            0      0.00%     77.55% # Class of executed instruction. (Count)
system.timingCpu1.exec_context.thread_0.statExecutedInstType::FloatSqrt            0      0.00%     77.55% # Class of executed instruction. (Count)
system.timingCpu1.exec_context.thread_0.statExecutedInstType::SimdAdd          446      0.00%     77.55% # Class of executed instruction. (Count)
system.timingCpu1.exec_context.thread_0.statExecutedInstType::SimdAddAcc            0      0.00%     77.55% # Class of executed instruction. (Count)
system.timingCpu1.exec_context.thread_0.statExecutedInstType::SimdAlu       644489      0.07%     77.62% # Class of executed instruction. (Count)
system.timingCpu1.exec_context.thread_0.statExecutedInstType::SimdCmp            0      0.00%     77.62% # Class of executed instruction. (Count)
system.timingCpu1.exec_context.thread_0.statExecutedInstType::SimdCvt          376      0.00%     77.62% # Class of executed instruction. (Count)
system.timingCpu1.exec_context.thread_0.statExecutedInstType::SimdMisc      3933237      0.43%     78.04% # Class of executed instruction. (Count)
system.timingCpu1.exec_context.thread_0.statExecutedInstType::SimdMult            0      0.00%     78.04% # Class of executed instruction. (Count)
system.timingCpu1.exec_context.thread_0.statExecutedInstType::SimdMultAcc            0      0.00%     78.04% # Class of executed instruction. (Count)
system.timingCpu1.exec_context.thread_0.statExecutedInstType::SimdShift          260      0.00%     78.04% # Class of executed instruction. (Count)
system.timingCpu1.exec_context.thread_0.statExecutedInstType::SimdShiftAcc            0      0.00%     78.04% # Class of executed instruction. (Count)
system.timingCpu1.exec_context.thread_0.statExecutedInstType::SimdDiv            0      0.00%     78.04% # Class of executed instruction. (Count)
system.timingCpu1.exec_context.thread_0.statExecutedInstType::SimdSqrt            0      0.00%     78.04% # Class of executed instruction. (Count)
system.timingCpu1.exec_context.thread_0.statExecutedInstType::SimdFloatAdd     12136375      1.32%     79.37% # Class of executed instruction. (Count)
system.timingCpu1.exec_context.thread_0.statExecutedInstType::SimdFloatAlu            0      0.00%     79.37% # Class of executed instruction. (Count)
system.timingCpu1.exec_context.thread_0.statExecutedInstType::SimdFloatCmp            1      0.00%     79.37% # Class of executed instruction. (Count)
system.timingCpu1.exec_context.thread_0.statExecutedInstType::SimdFloatCvt     12346708      1.35%     80.71% # Class of executed instruction. (Count)
system.timingCpu1.exec_context.thread_0.statExecutedInstType::SimdFloatDiv      4202952      0.46%     81.17% # Class of executed instruction. (Count)
system.timingCpu1.exec_context.thread_0.statExecutedInstType::SimdFloatMisc            0      0.00%     81.17% # Class of executed instruction. (Count)
system.timingCpu1.exec_context.thread_0.statExecutedInstType::SimdFloatMult      3940807      0.43%     81.60% # Class of executed instruction. (Count)
system.timingCpu1.exec_context.thread_0.statExecutedInstType::SimdFloatMultAcc            0      0.00%     81.60% # Class of executed instruction. (Count)
system.timingCpu1.exec_context.thread_0.statExecutedInstType::SimdFloatSqrt            0      0.00%     81.60% # Class of executed instruction. (Count)
system.timingCpu1.exec_context.thread_0.statExecutedInstType::SimdReduceAdd            0      0.00%     81.60% # Class of executed instruction. (Count)
system.timingCpu1.exec_context.thread_0.statExecutedInstType::SimdReduceAlu            0      0.00%     81.60% # Class of executed instruction. (Count)
system.timingCpu1.exec_context.thread_0.statExecutedInstType::SimdReduceCmp            0      0.00%     81.60% # Class of executed instruction. (Count)
system.timingCpu1.exec_context.thread_0.statExecutedInstType::SimdFloatReduceAdd            0      0.00%     81.60% # Class of executed instruction. (Count)
system.timingCpu1.exec_context.thread_0.statExecutedInstType::SimdFloatReduceCmp            0      0.00%     81.60% # Class of executed instruction. (Count)
system.timingCpu1.exec_context.thread_0.statExecutedInstType::SimdAes            0      0.00%     81.60% # Class of executed instruction. (Count)
system.timingCpu1.exec_context.thread_0.statExecutedInstType::SimdAesMix            0      0.00%     81.60% # Class of executed instruction. (Count)
system.timingCpu1.exec_context.thread_0.statExecutedInstType::SimdSha1Hash            0      0.00%     81.60% # Class of executed instruction. (Count)
system.timingCpu1.exec_context.thread_0.statExecutedInstType::SimdSha1Hash2            0      0.00%     81.60% # Class of executed instruction. (Count)
system.timingCpu1.exec_context.thread_0.statExecutedInstType::SimdSha256Hash            0      0.00%     81.60% # Class of executed instruction. (Count)
system.timingCpu1.exec_context.thread_0.statExecutedInstType::SimdSha256Hash2            0      0.00%     81.60% # Class of executed instruction. (Count)
system.timingCpu1.exec_context.thread_0.statExecutedInstType::SimdShaSigma2            0      0.00%     81.60% # Class of executed instruction. (Count)
system.timingCpu1.exec_context.thread_0.statExecutedInstType::SimdShaSigma3            0      0.00%     81.60% # Class of executed instruction. (Count)
system.timingCpu1.exec_context.thread_0.statExecutedInstType::SimdPredAlu            0      0.00%     81.60% # Class of executed instruction. (Count)
system.timingCpu1.exec_context.thread_0.statExecutedInstType::MemRead    132469529     14.44%     96.04% # Class of executed instruction. (Count)
system.timingCpu1.exec_context.thread_0.statExecutedInstType::MemWrite     13606623      1.48%     97.52% # Class of executed instruction. (Count)
system.timingCpu1.exec_context.thread_0.statExecutedInstType::FloatMemRead     20966909      2.29%     99.81% # Class of executed instruction. (Count)
system.timingCpu1.exec_context.thread_0.statExecutedInstType::FloatMemWrite      1743951      0.19%    100.00% # Class of executed instruction. (Count)
system.timingCpu1.exec_context.thread_0.statExecutedInstType::IprAccess            0      0.00%    100.00% # Class of executed instruction. (Count)
system.timingCpu1.exec_context.thread_0.statExecutedInstType::InstPrefetch            0      0.00%    100.00% # Class of executed instruction. (Count)
system.timingCpu1.exec_context.thread_0.statExecutedInstType::total    917386375                       # Class of executed instruction. (Count)
system.timingCpu1.mmu.dtb.rdAccesses        155224519                       # TLB accesses on read requests (Count)
system.timingCpu1.mmu.dtb.wrAccesses         15358244                       # TLB accesses on write requests (Count)
system.timingCpu1.mmu.dtb.rdMisses            1753751                       # TLB misses on read requests (Count)
system.timingCpu1.mmu.dtb.wrMisses               8065                       # TLB misses on write requests (Count)
system.timingCpu1.mmu.dtb.walker.power_state.pwrStateResidencyTicks::UNDEFINED 155885284919501                       # Cumulative time (in ticks) in various power states (Tick)
system.timingCpu1.mmu.itb.rdAccesses                0                       # TLB accesses on read requests (Count)
system.timingCpu1.mmu.itb.wrAccesses        741943362                       # TLB accesses on write requests (Count)
system.timingCpu1.mmu.itb.rdMisses                  0                       # TLB misses on read requests (Count)
system.timingCpu1.mmu.itb.wrMisses               4073                       # TLB misses on write requests (Count)
system.timingCpu1.mmu.itb.walker.power_state.pwrStateResidencyTicks::UNDEFINED 155885284919501                       # Cumulative time (in ticks) in various power states (Tick)
system.timingCpu1.power_state.numTransitions           26                       # Number of power state transitions (Count)
system.timingCpu1.power_state.ticksClkGated::samples           13                       # Distribution of time spent in the clock gated state (Tick)
system.timingCpu1.power_state.ticksClkGated::mean 947452173.076923                       # Distribution of time spent in the clock gated state (Tick)
system.timingCpu1.power_state.ticksClkGated::stdev 135235583.223407                       # Distribution of time spent in the clock gated state (Tick)
system.timingCpu1.power_state.ticksClkGated::1000-5e+10           13    100.00%    100.00% # Distribution of time spent in the clock gated state (Tick)
system.timingCpu1.power_state.ticksClkGated::min_value    525609000                       # Distribution of time spent in the clock gated state (Tick)
system.timingCpu1.power_state.ticksClkGated::max_value    998636250                       # Distribution of time spent in the clock gated state (Tick)
system.timingCpu1.power_state.ticksClkGated::total           13                       # Distribution of time spent in the clock gated state (Tick)
system.timingCpu1.power_state.pwrStateResidencyTicks::ON 1258493650251                       # Cumulative time (in ticks) in various power states (Tick)
system.timingCpu1.power_state.pwrStateResidencyTicks::CLK_GATED  12316878250                       # Cumulative time (in ticks) in various power states (Tick)
system.timingCpu1.power_state.pwrStateResidencyTicks::OFF 154614474391000                       # Cumulative time (in ticks) in various power states (Tick)
system.timingCpu1.thread_0.numInsts                 0                       # Number of Instructions committed (Count)
system.timingCpu1.thread_0.numOps                   0                       # Number of Ops committed (Count)
system.timingCpu1.thread_0.numMemRefs               0                       # Number of Memory References (Count)
system.workload.inst.arm                            0                       # number of arm instructions executed (Count)
system.workload.inst.quiesce                        0                       # number of quiesce instructions executed (Count)

---------- End Simulation Statistics   ----------
