
---------- Begin Simulation Statistics ----------
simSeconds                                          2                       # Number of seconds simulated (Second)
simTicks                                 2000000000000                       # Number of ticks simulated (Tick)
finalTick                                19457721861500                       # Number of ticks from beginning of simulation (restored from checkpoints and never reset) (Tick)
simFreq                                  1000000000000                       # The number of ticks per simulated second ((Tick/Second))
hostSeconds                                  12533.95                       # Real time elapsed on the host (Second)
hostTickRate                                159566657                       # The number of ticks simulated per host second (ticks/s) ((Tick/Second))
hostMemory                                    8217768                       # Number of bytes of host memory used (Byte)
simInsts                                   5888341716                       # Number of instructions simulated (Count)
simOps                                     9159055185                       # Number of ops (including micro ops) simulated (Count)
hostInstRate                                   469791                       # Simulator instruction rate (inst/s) ((Count/Second))
hostOpRate                                     730740                       # Simulator op (including micro ops) rate (op/s) ((Count/Second))
system.atomicCpu0.numCycles                         0                       # Number of cpu cycles simulated (Cycle)
system.atomicCpu0.numWorkItemsStarted               0                       # Number of work items this cpu started (Count)
system.atomicCpu0.numWorkItemsCompleted             0                       # Number of work items this cpu completed (Count)
system.atomicCpu0.exec_context.thread_0.numInsts            0                       # Number of instructions committed (Count)
system.atomicCpu0.exec_context.thread_0.numOps            0                       # Number of ops (including micro ops) committed (Count)
system.atomicCpu0.exec_context.thread_0.numIntAluAccesses            0                       # Number of integer alu accesses (Count)
system.atomicCpu0.exec_context.thread_0.numFpAluAccesses            0                       # Number of float alu accesses (Count)
system.atomicCpu0.exec_context.thread_0.numVecAluAccesses            0                       # Number of vector alu accesses (Count)
system.atomicCpu0.exec_context.thread_0.numCallsReturns            0                       # Number of times a function call or return occured (Count)
system.atomicCpu0.exec_context.thread_0.numCondCtrlInsts            0                       # Number of instructions that are conditional controls (Count)
system.atomicCpu0.exec_context.thread_0.numIntInsts            0                       # Number of integer instructions (Count)
system.atomicCpu0.exec_context.thread_0.numFpInsts            0                       # Number of float instructions (Count)
system.atomicCpu0.exec_context.thread_0.numVecInsts            0                       # Number of vector instructions (Count)
system.atomicCpu0.exec_context.thread_0.numIntRegReads            0                       # Number of times the integer registers were read (Count)
system.atomicCpu0.exec_context.thread_0.numIntRegWrites            0                       # Number of times the integer registers were written (Count)
system.atomicCpu0.exec_context.thread_0.numFpRegReads            0                       # Number of times the floating registers were read (Count)
system.atomicCpu0.exec_context.thread_0.numFpRegWrites            0                       # Number of times the floating registers were written (Count)
system.atomicCpu0.exec_context.thread_0.numVecRegReads            0                       # Number of times the vector registers were read (Count)
system.atomicCpu0.exec_context.thread_0.numVecRegWrites            0                       # Number of times the vector registers were written (Count)
system.atomicCpu0.exec_context.thread_0.numVecPredRegReads            0                       # Number of times the predicate registers were read (Count)
system.atomicCpu0.exec_context.thread_0.numVecPredRegWrites            0                       # Number of times the predicate registers were written (Count)
system.atomicCpu0.exec_context.thread_0.numMiscRegReads            0                       # Number of times the Misc registers were read (Count)
system.atomicCpu0.exec_context.thread_0.numMiscRegWrites            0                       # Number of times the Misc registers were written (Count)
system.atomicCpu0.exec_context.thread_0.numMemRefs            0                       # Number of memory refs (Count)
system.atomicCpu0.exec_context.thread_0.numLoadInsts            0                       # Number of load instructions (Count)
system.atomicCpu0.exec_context.thread_0.numStoreInsts            0                       # Number of store instructions (Count)
system.atomicCpu0.exec_context.thread_0.numIdleCycles            0                       # Number of idle cycles (Cycle)
system.atomicCpu0.exec_context.thread_0.numBusyCycles            0                       # Number of busy cycles (Cycle)
system.atomicCpu0.exec_context.thread_0.notIdleFraction            0                       # Percentage of non-idle cycles (Ratio)
system.atomicCpu0.exec_context.thread_0.idleFraction            1                       # Percentage of idle cycles (Ratio)
system.atomicCpu0.exec_context.thread_0.statExecutedInstType::No_OpClass            0                       # Class of executed instruction. (Count)
system.atomicCpu0.exec_context.thread_0.statExecutedInstType::IntAlu            0                       # Class of executed instruction. (Count)
system.atomicCpu0.exec_context.thread_0.statExecutedInstType::IntMult            0                       # Class of executed instruction. (Count)
system.atomicCpu0.exec_context.thread_0.statExecutedInstType::IntDiv            0                       # Class of executed instruction. (Count)
system.atomicCpu0.exec_context.thread_0.statExecutedInstType::FloatAdd            0                       # Class of executed instruction. (Count)
system.atomicCpu0.exec_context.thread_0.statExecutedInstType::FloatCmp            0                       # Class of executed instruction. (Count)
system.atomicCpu0.exec_context.thread_0.statExecutedInstType::FloatCvt            0                       # Class of executed instruction. (Count)
system.atomicCpu0.exec_context.thread_0.statExecutedInstType::FloatMult            0                       # Class of executed instruction. (Count)
system.atomicCpu0.exec_context.thread_0.statExecutedInstType::FloatMultAcc            0                       # Class of executed instruction. (Count)
system.atomicCpu0.exec_context.thread_0.statExecutedInstType::FloatDiv            0                       # Class of executed instruction. (Count)
system.atomicCpu0.exec_context.thread_0.statExecutedInstType::FloatMisc            0                       # Class of executed instruction. (Count)
system.atomicCpu0.exec_context.thread_0.statExecutedInstType::FloatSqrt            0                       # Class of executed instruction. (Count)
system.atomicCpu0.exec_context.thread_0.statExecutedInstType::SimdAdd            0                       # Class of executed instruction. (Count)
system.atomicCpu0.exec_context.thread_0.statExecutedInstType::SimdAddAcc            0                       # Class of executed instruction. (Count)
system.atomicCpu0.exec_context.thread_0.statExecutedInstType::SimdAlu            0                       # Class of executed instruction. (Count)
system.atomicCpu0.exec_context.thread_0.statExecutedInstType::SimdCmp            0                       # Class of executed instruction. (Count)
system.atomicCpu0.exec_context.thread_0.statExecutedInstType::SimdCvt            0                       # Class of executed instruction. (Count)
system.atomicCpu0.exec_context.thread_0.statExecutedInstType::SimdMisc            0                       # Class of executed instruction. (Count)
system.atomicCpu0.exec_context.thread_0.statExecutedInstType::SimdMult            0                       # Class of executed instruction. (Count)
system.atomicCpu0.exec_context.thread_0.statExecutedInstType::SimdMultAcc            0                       # Class of executed instruction. (Count)
system.atomicCpu0.exec_context.thread_0.statExecutedInstType::SimdShift            0                       # Class of executed instruction. (Count)
system.atomicCpu0.exec_context.thread_0.statExecutedInstType::SimdShiftAcc            0                       # Class of executed instruction. (Count)
system.atomicCpu0.exec_context.thread_0.statExecutedInstType::SimdDiv            0                       # Class of executed instruction. (Count)
system.atomicCpu0.exec_context.thread_0.statExecutedInstType::SimdSqrt            0                       # Class of executed instruction. (Count)
system.atomicCpu0.exec_context.thread_0.statExecutedInstType::SimdFloatAdd            0                       # Class of executed instruction. (Count)
system.atomicCpu0.exec_context.thread_0.statExecutedInstType::SimdFloatAlu            0                       # Class of executed instruction. (Count)
system.atomicCpu0.exec_context.thread_0.statExecutedInstType::SimdFloatCmp            0                       # Class of executed instruction. (Count)
system.atomicCpu0.exec_context.thread_0.statExecutedInstType::SimdFloatCvt            0                       # Class of executed instruction. (Count)
system.atomicCpu0.exec_context.thread_0.statExecutedInstType::SimdFloatDiv            0                       # Class of executed instruction. (Count)
system.atomicCpu0.exec_context.thread_0.statExecutedInstType::SimdFloatMisc            0                       # Class of executed instruction. (Count)
system.atomicCpu0.exec_context.thread_0.statExecutedInstType::SimdFloatMult            0                       # Class of executed instruction. (Count)
system.atomicCpu0.exec_context.thread_0.statExecutedInstType::SimdFloatMultAcc            0                       # Class of executed instruction. (Count)
system.atomicCpu0.exec_context.thread_0.statExecutedInstType::SimdFloatSqrt            0                       # Class of executed instruction. (Count)
system.atomicCpu0.exec_context.thread_0.statExecutedInstType::SimdReduceAdd            0                       # Class of executed instruction. (Count)
system.atomicCpu0.exec_context.thread_0.statExecutedInstType::SimdReduceAlu            0                       # Class of executed instruction. (Count)
system.atomicCpu0.exec_context.thread_0.statExecutedInstType::SimdReduceCmp            0                       # Class of executed instruction. (Count)
system.atomicCpu0.exec_context.thread_0.statExecutedInstType::SimdFloatReduceAdd            0                       # Class of executed instruction. (Count)
system.atomicCpu0.exec_context.thread_0.statExecutedInstType::SimdFloatReduceCmp            0                       # Class of executed instruction. (Count)
system.atomicCpu0.exec_context.thread_0.statExecutedInstType::SimdAes            0                       # Class of executed instruction. (Count)
system.atomicCpu0.exec_context.thread_0.statExecutedInstType::SimdAesMix            0                       # Class of executed instruction. (Count)
system.atomicCpu0.exec_context.thread_0.statExecutedInstType::SimdSha1Hash            0                       # Class of executed instruction. (Count)
system.atomicCpu0.exec_context.thread_0.statExecutedInstType::SimdSha1Hash2            0                       # Class of executed instruction. (Count)
system.atomicCpu0.exec_context.thread_0.statExecutedInstType::SimdSha256Hash            0                       # Class of executed instruction. (Count)
system.atomicCpu0.exec_context.thread_0.statExecutedInstType::SimdSha256Hash2            0                       # Class of executed instruction. (Count)
system.atomicCpu0.exec_context.thread_0.statExecutedInstType::SimdShaSigma2            0                       # Class of executed instruction. (Count)
system.atomicCpu0.exec_context.thread_0.statExecutedInstType::SimdShaSigma3            0                       # Class of executed instruction. (Count)
system.atomicCpu0.exec_context.thread_0.statExecutedInstType::SimdPredAlu            0                       # Class of executed instruction. (Count)
system.atomicCpu0.exec_context.thread_0.statExecutedInstType::MemRead            0                       # Class of executed instruction. (Count)
system.atomicCpu0.exec_context.thread_0.statExecutedInstType::MemWrite            0                       # Class of executed instruction. (Count)
system.atomicCpu0.exec_context.thread_0.statExecutedInstType::FloatMemRead            0                       # Class of executed instruction. (Count)
system.atomicCpu0.exec_context.thread_0.statExecutedInstType::FloatMemWrite            0                       # Class of executed instruction. (Count)
system.atomicCpu0.exec_context.thread_0.statExecutedInstType::IprAccess            0                       # Class of executed instruction. (Count)
system.atomicCpu0.exec_context.thread_0.statExecutedInstType::InstPrefetch            0                       # Class of executed instruction. (Count)
system.atomicCpu0.exec_context.thread_0.statExecutedInstType::total            0                       # Class of executed instruction. (Count)
system.atomicCpu0.mmu.dtb.rdAccesses                0                       # TLB accesses on read requests (Count)
system.atomicCpu0.mmu.dtb.wrAccesses                0                       # TLB accesses on write requests (Count)
system.atomicCpu0.mmu.dtb.rdMisses                  0                       # TLB misses on read requests (Count)
system.atomicCpu0.mmu.dtb.wrMisses                  0                       # TLB misses on write requests (Count)
system.atomicCpu0.mmu.dtb.walker.power_state.pwrStateResidencyTicks::UNDEFINED 19457721861500                       # Cumulative time (in ticks) in various power states (Tick)
system.atomicCpu0.mmu.itb.rdAccesses                0                       # TLB accesses on read requests (Count)
system.atomicCpu0.mmu.itb.wrAccesses                0                       # TLB accesses on write requests (Count)
system.atomicCpu0.mmu.itb.rdMisses                  0                       # TLB misses on read requests (Count)
system.atomicCpu0.mmu.itb.wrMisses                  0                       # TLB misses on write requests (Count)
system.atomicCpu0.mmu.itb.walker.power_state.pwrStateResidencyTicks::UNDEFINED 19457721861500                       # Cumulative time (in ticks) in various power states (Tick)
system.atomicCpu0.power_state.pwrStateResidencyTicks::OFF 19457721861500                       # Cumulative time (in ticks) in various power states (Tick)
system.atomicCpu0.thread_0.numInsts                 0                       # Number of Instructions committed (Count)
system.atomicCpu0.thread_0.numOps                   0                       # Number of Ops committed (Count)
system.atomicCpu0.thread_0.numMemRefs               0                       # Number of Memory References (Count)
system.atomicCpu1.numCycles                         0                       # Number of cpu cycles simulated (Cycle)
system.atomicCpu1.numWorkItemsStarted               0                       # Number of work items this cpu started (Count)
system.atomicCpu1.numWorkItemsCompleted             0                       # Number of work items this cpu completed (Count)
system.atomicCpu1.exec_context.thread_0.numInsts            0                       # Number of instructions committed (Count)
system.atomicCpu1.exec_context.thread_0.numOps            0                       # Number of ops (including micro ops) committed (Count)
system.atomicCpu1.exec_context.thread_0.numIntAluAccesses            0                       # Number of integer alu accesses (Count)
system.atomicCpu1.exec_context.thread_0.numFpAluAccesses            0                       # Number of float alu accesses (Count)
system.atomicCpu1.exec_context.thread_0.numVecAluAccesses            0                       # Number of vector alu accesses (Count)
system.atomicCpu1.exec_context.thread_0.numCallsReturns            0                       # Number of times a function call or return occured (Count)
system.atomicCpu1.exec_context.thread_0.numCondCtrlInsts            0                       # Number of instructions that are conditional controls (Count)
system.atomicCpu1.exec_context.thread_0.numIntInsts            0                       # Number of integer instructions (Count)
system.atomicCpu1.exec_context.thread_0.numFpInsts            0                       # Number of float instructions (Count)
system.atomicCpu1.exec_context.thread_0.numVecInsts            0                       # Number of vector instructions (Count)
system.atomicCpu1.exec_context.thread_0.numIntRegReads            0                       # Number of times the integer registers were read (Count)
system.atomicCpu1.exec_context.thread_0.numIntRegWrites            0                       # Number of times the integer registers were written (Count)
system.atomicCpu1.exec_context.thread_0.numFpRegReads            0                       # Number of times the floating registers were read (Count)
system.atomicCpu1.exec_context.thread_0.numFpRegWrites            0                       # Number of times the floating registers were written (Count)
system.atomicCpu1.exec_context.thread_0.numVecRegReads            0                       # Number of times the vector registers were read (Count)
system.atomicCpu1.exec_context.thread_0.numVecRegWrites            0                       # Number of times the vector registers were written (Count)
system.atomicCpu1.exec_context.thread_0.numVecPredRegReads            0                       # Number of times the predicate registers were read (Count)
system.atomicCpu1.exec_context.thread_0.numVecPredRegWrites            0                       # Number of times the predicate registers were written (Count)
system.atomicCpu1.exec_context.thread_0.numMiscRegReads            0                       # Number of times the Misc registers were read (Count)
system.atomicCpu1.exec_context.thread_0.numMiscRegWrites            0                       # Number of times the Misc registers were written (Count)
system.atomicCpu1.exec_context.thread_0.numMemRefs            0                       # Number of memory refs (Count)
system.atomicCpu1.exec_context.thread_0.numLoadInsts            0                       # Number of load instructions (Count)
system.atomicCpu1.exec_context.thread_0.numStoreInsts            0                       # Number of store instructions (Count)
system.atomicCpu1.exec_context.thread_0.numIdleCycles            0                       # Number of idle cycles (Cycle)
system.atomicCpu1.exec_context.thread_0.numBusyCycles            0                       # Number of busy cycles (Cycle)
system.atomicCpu1.exec_context.thread_0.notIdleFraction            0                       # Percentage of non-idle cycles (Ratio)
system.atomicCpu1.exec_context.thread_0.idleFraction            1                       # Percentage of idle cycles (Ratio)
system.atomicCpu1.exec_context.thread_0.statExecutedInstType::No_OpClass            0                       # Class of executed instruction. (Count)
system.atomicCpu1.exec_context.thread_0.statExecutedInstType::IntAlu            0                       # Class of executed instruction. (Count)
system.atomicCpu1.exec_context.thread_0.statExecutedInstType::IntMult            0                       # Class of executed instruction. (Count)
system.atomicCpu1.exec_context.thread_0.statExecutedInstType::IntDiv            0                       # Class of executed instruction. (Count)
system.atomicCpu1.exec_context.thread_0.statExecutedInstType::FloatAdd            0                       # Class of executed instruction. (Count)
system.atomicCpu1.exec_context.thread_0.statExecutedInstType::FloatCmp            0                       # Class of executed instruction. (Count)
system.atomicCpu1.exec_context.thread_0.statExecutedInstType::FloatCvt            0                       # Class of executed instruction. (Count)
system.atomicCpu1.exec_context.thread_0.statExecutedInstType::FloatMult            0                       # Class of executed instruction. (Count)
system.atomicCpu1.exec_context.thread_0.statExecutedInstType::FloatMultAcc            0                       # Class of executed instruction. (Count)
system.atomicCpu1.exec_context.thread_0.statExecutedInstType::FloatDiv            0                       # Class of executed instruction. (Count)
system.atomicCpu1.exec_context.thread_0.statExecutedInstType::FloatMisc            0                       # Class of executed instruction. (Count)
system.atomicCpu1.exec_context.thread_0.statExecutedInstType::FloatSqrt            0                       # Class of executed instruction. (Count)
system.atomicCpu1.exec_context.thread_0.statExecutedInstType::SimdAdd            0                       # Class of executed instruction. (Count)
system.atomicCpu1.exec_context.thread_0.statExecutedInstType::SimdAddAcc            0                       # Class of executed instruction. (Count)
system.atomicCpu1.exec_context.thread_0.statExecutedInstType::SimdAlu            0                       # Class of executed instruction. (Count)
system.atomicCpu1.exec_context.thread_0.statExecutedInstType::SimdCmp            0                       # Class of executed instruction. (Count)
system.atomicCpu1.exec_context.thread_0.statExecutedInstType::SimdCvt            0                       # Class of executed instruction. (Count)
system.atomicCpu1.exec_context.thread_0.statExecutedInstType::SimdMisc            0                       # Class of executed instruction. (Count)
system.atomicCpu1.exec_context.thread_0.statExecutedInstType::SimdMult            0                       # Class of executed instruction. (Count)
system.atomicCpu1.exec_context.thread_0.statExecutedInstType::SimdMultAcc            0                       # Class of executed instruction. (Count)
system.atomicCpu1.exec_context.thread_0.statExecutedInstType::SimdShift            0                       # Class of executed instruction. (Count)
system.atomicCpu1.exec_context.thread_0.statExecutedInstType::SimdShiftAcc            0                       # Class of executed instruction. (Count)
system.atomicCpu1.exec_context.thread_0.statExecutedInstType::SimdDiv            0                       # Class of executed instruction. (Count)
system.atomicCpu1.exec_context.thread_0.statExecutedInstType::SimdSqrt            0                       # Class of executed instruction. (Count)
system.atomicCpu1.exec_context.thread_0.statExecutedInstType::SimdFloatAdd            0                       # Class of executed instruction. (Count)
system.atomicCpu1.exec_context.thread_0.statExecutedInstType::SimdFloatAlu            0                       # Class of executed instruction. (Count)
system.atomicCpu1.exec_context.thread_0.statExecutedInstType::SimdFloatCmp            0                       # Class of executed instruction. (Count)
system.atomicCpu1.exec_context.thread_0.statExecutedInstType::SimdFloatCvt            0                       # Class of executed instruction. (Count)
system.atomicCpu1.exec_context.thread_0.statExecutedInstType::SimdFloatDiv            0                       # Class of executed instruction. (Count)
system.atomicCpu1.exec_context.thread_0.statExecutedInstType::SimdFloatMisc            0                       # Class of executed instruction. (Count)
system.atomicCpu1.exec_context.thread_0.statExecutedInstType::SimdFloatMult            0                       # Class of executed instruction. (Count)
system.atomicCpu1.exec_context.thread_0.statExecutedInstType::SimdFloatMultAcc            0                       # Class of executed instruction. (Count)
system.atomicCpu1.exec_context.thread_0.statExecutedInstType::SimdFloatSqrt            0                       # Class of executed instruction. (Count)
system.atomicCpu1.exec_context.thread_0.statExecutedInstType::SimdReduceAdd            0                       # Class of executed instruction. (Count)
system.atomicCpu1.exec_context.thread_0.statExecutedInstType::SimdReduceAlu            0                       # Class of executed instruction. (Count)
system.atomicCpu1.exec_context.thread_0.statExecutedInstType::SimdReduceCmp            0                       # Class of executed instruction. (Count)
system.atomicCpu1.exec_context.thread_0.statExecutedInstType::SimdFloatReduceAdd            0                       # Class of executed instruction. (Count)
system.atomicCpu1.exec_context.thread_0.statExecutedInstType::SimdFloatReduceCmp            0                       # Class of executed instruction. (Count)
system.atomicCpu1.exec_context.thread_0.statExecutedInstType::SimdAes            0                       # Class of executed instruction. (Count)
system.atomicCpu1.exec_context.thread_0.statExecutedInstType::SimdAesMix            0                       # Class of executed instruction. (Count)
system.atomicCpu1.exec_context.thread_0.statExecutedInstType::SimdSha1Hash            0                       # Class of executed instruction. (Count)
system.atomicCpu1.exec_context.thread_0.statExecutedInstType::SimdSha1Hash2            0                       # Class of executed instruction. (Count)
system.atomicCpu1.exec_context.thread_0.statExecutedInstType::SimdSha256Hash            0                       # Class of executed instruction. (Count)
system.atomicCpu1.exec_context.thread_0.statExecutedInstType::SimdSha256Hash2            0                       # Class of executed instruction. (Count)
system.atomicCpu1.exec_context.thread_0.statExecutedInstType::SimdShaSigma2            0                       # Class of executed instruction. (Count)
system.atomicCpu1.exec_context.thread_0.statExecutedInstType::SimdShaSigma3            0                       # Class of executed instruction. (Count)
system.atomicCpu1.exec_context.thread_0.statExecutedInstType::SimdPredAlu            0                       # Class of executed instruction. (Count)
system.atomicCpu1.exec_context.thread_0.statExecutedInstType::MemRead            0                       # Class of executed instruction. (Count)
system.atomicCpu1.exec_context.thread_0.statExecutedInstType::MemWrite            0                       # Class of executed instruction. (Count)
system.atomicCpu1.exec_context.thread_0.statExecutedInstType::FloatMemRead            0                       # Class of executed instruction. (Count)
system.atomicCpu1.exec_context.thread_0.statExecutedInstType::FloatMemWrite            0                       # Class of executed instruction. (Count)
system.atomicCpu1.exec_context.thread_0.statExecutedInstType::IprAccess            0                       # Class of executed instruction. (Count)
system.atomicCpu1.exec_context.thread_0.statExecutedInstType::InstPrefetch            0                       # Class of executed instruction. (Count)
system.atomicCpu1.exec_context.thread_0.statExecutedInstType::total            0                       # Class of executed instruction. (Count)
system.atomicCpu1.mmu.dtb.rdAccesses                0                       # TLB accesses on read requests (Count)
system.atomicCpu1.mmu.dtb.wrAccesses                0                       # TLB accesses on write requests (Count)
system.atomicCpu1.mmu.dtb.rdMisses                  0                       # TLB misses on read requests (Count)
system.atomicCpu1.mmu.dtb.wrMisses                  0                       # TLB misses on write requests (Count)
system.atomicCpu1.mmu.dtb.walker.power_state.pwrStateResidencyTicks::UNDEFINED 19457721861500                       # Cumulative time (in ticks) in various power states (Tick)
system.atomicCpu1.mmu.itb.rdAccesses                0                       # TLB accesses on read requests (Count)
system.atomicCpu1.mmu.itb.wrAccesses                0                       # TLB accesses on write requests (Count)
system.atomicCpu1.mmu.itb.rdMisses                  0                       # TLB misses on read requests (Count)
system.atomicCpu1.mmu.itb.wrMisses                  0                       # TLB misses on write requests (Count)
system.atomicCpu1.mmu.itb.walker.power_state.pwrStateResidencyTicks::UNDEFINED 19457721861500                       # Cumulative time (in ticks) in various power states (Tick)
system.atomicCpu1.power_state.pwrStateResidencyTicks::OFF 19457721861500                       # Cumulative time (in ticks) in various power states (Tick)
system.atomicCpu1.thread_0.numInsts                 0                       # Number of Instructions committed (Count)
system.atomicCpu1.thread_0.numOps                   0                       # Number of Ops committed (Count)
system.atomicCpu1.thread_0.numMemRefs               0                       # Number of Memory References (Count)
system.caches.delayHistogram::bucket_size          128                       # delay histogram for all message (Unspecified)
system.caches.delayHistogram::max_bucket         1279                       # delay histogram for all message (Unspecified)
system.caches.delayHistogram::samples        33657336                       # delay histogram for all message (Unspecified)
system.caches.delayHistogram::mean           1.123217                       # delay histogram for all message (Unspecified)
system.caches.delayHistogram::stdev          2.783957                       # delay histogram for all message (Unspecified)
system.caches.delayHistogram             |    33657335    100.00%    100.00% |           0      0.00%    100.00% |           0      0.00%    100.00% |           0      0.00%    100.00% |           0      0.00%    100.00% |           1      0.00%    100.00% |           0      0.00%    100.00% |           0      0.00%    100.00% |           0      0.00%    100.00% |           0      0.00%    100.00% # delay histogram for all message (Unspecified)
system.caches.delayHistogram::total          33657336                       # delay histogram for all message (Unspecified)
system.caches.m_outstandReqHistSeqr::bucket_size            1                       (Unspecified)
system.caches.m_outstandReqHistSeqr::max_bucket            9                       (Unspecified)
system.caches.m_outstandReqHistSeqr::samples   6294615852                       (Unspecified)
system.caches.m_outstandReqHistSeqr::mean            1                       (Unspecified)
system.caches.m_outstandReqHistSeqr::gmean            1                       (Unspecified)
system.caches.m_outstandReqHistSeqr      |           0      0.00%      0.00% |  6294615852    100.00%    100.00% |           0      0.00%    100.00% |           0      0.00%    100.00% |           0      0.00%    100.00% |           0      0.00%    100.00% |           0      0.00%    100.00% |           0      0.00%    100.00% |           0      0.00%    100.00% |           0      0.00%    100.00% (Unspecified)
system.caches.m_outstandReqHistSeqr::total   6294615852                       (Unspecified)
system.caches.m_latencyHistSeqr::bucket_size          512                       (Unspecified)
system.caches.m_latencyHistSeqr::max_bucket         5119                       (Unspecified)
system.caches.m_latencyHistSeqr::samples   6294615851                       (Unspecified)
system.caches.m_latencyHistSeqr::mean        1.541199                       (Unspecified)
system.caches.m_latencyHistSeqr::gmean       1.005022                       (Unspecified)
system.caches.m_latencyHistSeqr::stdev      20.881866                       (Unspecified)
system.caches.m_latencyHistSeqr          |  6290419916     99.93%     99.93% |     4010098      0.06%    100.00% |       86508      0.00%    100.00% |       48699      0.00%    100.00% |       48259      0.00%    100.00% |        2332      0.00%    100.00% |          38      0.00%    100.00% |           1      0.00%    100.00% |           0      0.00%    100.00% |           0      0.00%    100.00% (Unspecified)
system.caches.m_latencyHistSeqr::total     6294615851                       (Unspecified)
system.caches.m_hitLatencyHistSeqr::bucket_size            1                       (Unspecified)
system.caches.m_hitLatencyHistSeqr::max_bucket            9                       (Unspecified)
system.caches.m_hitLatencyHistSeqr::samples   6289635447                       (Unspecified)
system.caches.m_hitLatencyHistSeqr::mean            1                       (Unspecified)
system.caches.m_hitLatencyHistSeqr::gmean            1                       (Unspecified)
system.caches.m_hitLatencyHistSeqr       |           0      0.00%      0.00% |  6289635447    100.00%    100.00% |           0      0.00%    100.00% |           0      0.00%    100.00% |           0      0.00%    100.00% |           0      0.00%    100.00% |           0      0.00%    100.00% |           0      0.00%    100.00% |           0      0.00%    100.00% |           0      0.00%    100.00% (Unspecified)
system.caches.m_hitLatencyHistSeqr::total   6289635447                       (Unspecified)
system.caches.m_missLatencyHistSeqr::bucket_size          512                       (Unspecified)
system.caches.m_missLatencyHistSeqr::max_bucket         5119                       (Unspecified)
system.caches.m_missLatencyHistSeqr::samples      4980404                       (Unspecified)
system.caches.m_missLatencyHistSeqr::mean   685.008932                       (Unspecified)
system.caches.m_missLatencyHistSeqr::gmean   561.588015                       (Unspecified)
system.caches.m_missLatencyHistSeqr::stdev   289.168249                       (Unspecified)
system.caches.m_missLatencyHistSeqr      |      784469     15.75%     15.75% |     4010098     80.52%     96.27% |       86508      1.74%     98.01% |       48699      0.98%     98.98% |       48259      0.97%     99.95% |        2332      0.05%    100.00% |          38      0.00%    100.00% |           1      0.00%    100.00% |           0      0.00%    100.00% |           0      0.00%    100.00% (Unspecified)
system.caches.m_missLatencyHistSeqr::total      4980404                       (Unspecified)
system.caches.delayVCHist.vnet_0::bucket_size          128                       # delay histogram for vnet_0 (Unspecified)
system.caches.delayVCHist.vnet_0::max_bucket         1279                       # delay histogram for vnet_0 (Unspecified)
system.caches.delayVCHist.vnet_0::samples     14538114                       # delay histogram for vnet_0 (Unspecified)
system.caches.delayVCHist.vnet_0::mean       2.600244                       # delay histogram for vnet_0 (Unspecified)
system.caches.delayVCHist.vnet_0::stdev      3.755241                       # delay histogram for vnet_0 (Unspecified)
system.caches.delayVCHist.vnet_0         |    14538113    100.00%    100.00% |           0      0.00%    100.00% |           0      0.00%    100.00% |           0      0.00%    100.00% |           0      0.00%    100.00% |           1      0.00%    100.00% |           0      0.00%    100.00% |           0      0.00%    100.00% |           0      0.00%    100.00% |           0      0.00%    100.00% # delay histogram for vnet_0 (Unspecified)
system.caches.delayVCHist.vnet_0::total      14538114                       # delay histogram for vnet_0 (Unspecified)
system.caches.delayVCHist.vnet_1::bucket_size            1                       # delay histogram for vnet_1 (Unspecified)
system.caches.delayVCHist.vnet_1::max_bucket            9                       # delay histogram for vnet_1 (Unspecified)
system.caches.delayVCHist.vnet_1::samples     19055255                       # delay histogram for vnet_1 (Unspecified)
system.caches.delayVCHist.vnet_1::mean       0.000097                       # delay histogram for vnet_1 (Unspecified)
system.caches.delayVCHist.vnet_1::stdev      0.023904                       # delay histogram for vnet_1 (Unspecified)
system.caches.delayVCHist.vnet_1         |    19054854    100.00%    100.00% |           0      0.00%    100.00% |         144      0.00%    100.00% |           0      0.00%    100.00% |          94      0.00%    100.00% |           0      0.00%    100.00% |          58      0.00%    100.00% |           0      0.00%    100.00% |         105      0.00%    100.00% |           0      0.00%    100.00% # delay histogram for vnet_1 (Unspecified)
system.caches.delayVCHist.vnet_1::total      19055255                       # delay histogram for vnet_1 (Unspecified)
system.caches.delayVCHist.vnet_2::bucket_size            1                       # delay histogram for vnet_2 (Unspecified)
system.caches.delayVCHist.vnet_2::max_bucket            9                       # delay histogram for vnet_2 (Unspecified)
system.caches.delayVCHist.vnet_2::samples        63967                       # delay histogram for vnet_2 (Unspecified)
system.caches.delayVCHist.vnet_2::mean       0.000031                       # delay histogram for vnet_2 (Unspecified)
system.caches.delayVCHist.vnet_2::stdev      0.007908                       # delay histogram for vnet_2 (Unspecified)
system.caches.delayVCHist.vnet_2         |       63966    100.00%    100.00% |           0      0.00%    100.00% |           1      0.00%    100.00% |           0      0.00%    100.00% |           0      0.00%    100.00% |           0      0.00%    100.00% |           0      0.00%    100.00% |           0      0.00%    100.00% |           0      0.00%    100.00% |           0      0.00%    100.00% # delay histogram for vnet_2 (Unspecified)
system.caches.delayVCHist.vnet_2::total         63967                       # delay histogram for vnet_2 (Unspecified)
system.caches.L1Cache_Controller.Load    |   716283950     49.99%     49.99% |   716480920     50.01%    100.00% (Unspecified)
system.caches.L1Cache_Controller.Load::total   1432764870                       (Unspecified)
system.caches.L1Cache_Controller.Ifetch  |18446744071763656704     50.00%     50.00% |18446744071764047872     50.00%    100.00% (Unspecified)
system.caches.L1Cache_Controller.Ifetch::total 36893488143527706624                       (Unspecified)
system.caches.L1Cache_Controller.Store   |    81845235     50.12%     50.12% |    81468696     49.88%    100.00% (Unspecified)
system.caches.L1Cache_Controller.Store::total    163313931                       (Unspecified)
system.caches.L1Cache_Controller.Inv     |       16616     37.27%     37.27% |       27962     62.73%    100.00% (Unspecified)
system.caches.L1Cache_Controller.Inv::total        44578                       (Unspecified)
system.caches.L1Cache_Controller.L1_Replacement |     2480574     50.51%     50.51% |     2430315     49.49%    100.00% (Unspecified)
system.caches.L1Cache_Controller.L1_Replacement::total      4910889                       (Unspecified)
system.caches.L1Cache_Controller.Fwd_GETX |         528     13.65%     13.65% |        3339     86.35%    100.00% (Unspecified)
system.caches.L1Cache_Controller.Fwd_GETX::total         3867                       (Unspecified)
system.caches.L1Cache_Controller.Fwd_GETS |       13628     87.80%     87.80% |        1894     12.20%    100.00% (Unspecified)
system.caches.L1Cache_Controller.Fwd_GETS::total        15522                       (Unspecified)
system.caches.L1Cache_Controller.Data    |          10     90.91%     90.91% |           1      9.09%    100.00% (Unspecified)
system.caches.L1Cache_Controller.Data::total           11                       (Unspecified)
system.caches.L1Cache_Controller.Data_Exclusive |       37111     49.46%     49.46% |       37918     50.54%    100.00% (Unspecified)
system.caches.L1Cache_Controller.Data_Exclusive::total        75029                       (Unspecified)
system.caches.L1Cache_Controller.DataS_fromL1 |        1894     12.20%     12.20% |       13628     87.80%    100.00% (Unspecified)
system.caches.L1Cache_Controller.DataS_fromL1::total        15522                       (Unspecified)
system.caches.L1Cache_Controller.Data_all_Acks |     2463385     50.52%     50.52% |     2412330     49.48%    100.00% (Unspecified)
system.caches.L1Cache_Controller.Data_all_Acks::total      4875715                       (Unspecified)
system.caches.L1Cache_Controller.Ack     |       13815     97.79%     97.79% |         312      2.21%    100.00% (Unspecified)
system.caches.L1Cache_Controller.Ack::total        14127                       (Unspecified)
system.caches.L1Cache_Controller.Ack_all |       13825     97.79%     97.79% |         313      2.21%    100.00% (Unspecified)
system.caches.L1Cache_Controller.Ack_all::total        14138                       (Unspecified)
system.caches.L1Cache_Controller.WB_Ack  |     2382894     50.16%     50.16% |     2367423     49.84%    100.00% (Unspecified)
system.caches.L1Cache_Controller.WB_Ack::total      4750317                       (Unspecified)
system.caches.L1Cache_Controller.NP.Load |       39535     50.33%     50.33% |       39022     49.67%    100.00% (Unspecified)
system.caches.L1Cache_Controller.NP.Load::total        78557                       (Unspecified)
system.caches.L1Cache_Controller.NP.Ifetch |       93819     62.63%     62.63% |       55982     37.37%    100.00% (Unspecified)
system.caches.L1Cache_Controller.NP.Ifetch::total       149801                       (Unspecified)
system.caches.L1Cache_Controller.NP.Store |     2355924     50.13%     50.13% |     2344010     49.87%    100.00% (Unspecified)
system.caches.L1Cache_Controller.NP.Store::total      4699934                       (Unspecified)
system.caches.L1Cache_Controller.NP.Inv  |        2143     58.58%     58.58% |        1515     41.42%    100.00% (Unspecified)
system.caches.L1Cache_Controller.NP.Inv::total         3658                       (Unspecified)
system.caches.L1Cache_Controller.I.Load  |        3758     18.52%     18.52% |       16538     81.48%    100.00% (Unspecified)
system.caches.L1Cache_Controller.I.Load::total        20296                       (Unspecified)
system.caches.L1Cache_Controller.I.Ifetch |        7806     52.36%     52.36% |        7102     47.64%    100.00% (Unspecified)
system.caches.L1Cache_Controller.I.Ifetch::total        14908                       (Unspecified)
system.caches.L1Cache_Controller.I.Store |        1558     56.04%     56.04% |        1222     43.96%    100.00% (Unspecified)
system.caches.L1Cache_Controller.I.Store::total         2780                       (Unspecified)
system.caches.L1Cache_Controller.I.L1_Replacement |        1150     21.31%     21.31% |        4247     78.69%    100.00% (Unspecified)
system.caches.L1Cache_Controller.I.L1_Replacement::total         5397                       (Unspecified)
system.caches.L1Cache_Controller.S.Load  |   622425203     49.96%     49.96% |   623373601     50.04%    100.00% (Unspecified)
system.caches.L1Cache_Controller.S.Load::total   1245798804                       (Unspecified)
system.caches.L1Cache_Controller.S.Ifetch |18446744071763556352     50.00%     50.00% |18446744071763984384     50.00%    100.00% (Unspecified)
system.caches.L1Cache_Controller.S.Ifetch::total 36893488143527542784                       (Unspecified)
system.caches.L1Cache_Controller.S.Store |       13815     97.78%     97.78% |         313      2.22%    100.00% (Unspecified)
system.caches.L1Cache_Controller.S.Store::total        14128                       (Unspecified)
system.caches.L1Cache_Controller.S.Inv   |       10729     31.51%     31.51% |       23316     68.49%    100.00% (Unspecified)
system.caches.L1Cache_Controller.S.Inv::total        34045                       (Unspecified)
system.caches.L1Cache_Controller.S.L1_Replacement |       96530     62.21%     62.21% |       58645     37.79%    100.00% (Unspecified)
system.caches.L1Cache_Controller.S.L1_Replacement::total       155175                       (Unspecified)
system.caches.L1Cache_Controller.E.Load  |     1021254     65.15%     65.15% |      546298     34.85%    100.00% (Unspecified)
system.caches.L1Cache_Controller.E.Load::total      1567552                       (Unspecified)
system.caches.L1Cache_Controller.E.Store |       19822     49.87%     49.87% |       19927     50.13%    100.00% (Unspecified)
system.caches.L1Cache_Controller.E.Store::total        39749                       (Unspecified)
system.caches.L1Cache_Controller.E.Inv   |        1105     50.48%     50.48% |        1084     49.52%    100.00% (Unspecified)
system.caches.L1Cache_Controller.E.Inv::total         2189                       (Unspecified)
system.caches.L1Cache_Controller.E.L1_Replacement |       15755     49.95%     49.95% |       15784     50.05%    100.00% (Unspecified)
system.caches.L1Cache_Controller.E.L1_Replacement::total        31539                       (Unspecified)
system.caches.L1Cache_Controller.E.Fwd_GETX |           3     37.50%     37.50% |           5     62.50%    100.00% (Unspecified)
system.caches.L1Cache_Controller.E.Fwd_GETX::total            8                       (Unspecified)
system.caches.L1Cache_Controller.E.Fwd_GETS |         387     26.33%     26.33% |        1083     73.67%    100.00% (Unspecified)
system.caches.L1Cache_Controller.E.Fwd_GETS::total         1470                       (Unspecified)
system.caches.L1Cache_Controller.M.Load  |    92794200     50.08%     50.08% |    92505461     49.92%    100.00% (Unspecified)
system.caches.L1Cache_Controller.M.Load::total    185299661                       (Unspecified)
system.caches.L1Cache_Controller.M.Store |    79454116     50.11%     50.11% |    79103224     49.89%    100.00% (Unspecified)
system.caches.L1Cache_Controller.M.Store::total    158557340                       (Unspecified)
system.caches.L1Cache_Controller.M.Inv   |        2639     56.33%     56.33% |        2046     43.67%    100.00% (Unspecified)
system.caches.L1Cache_Controller.M.Inv::total         4685                       (Unspecified)
system.caches.L1Cache_Controller.M.L1_Replacement |     2367139     50.16%     50.16% |     2351639     49.84%    100.00% (Unspecified)
system.caches.L1Cache_Controller.M.L1_Replacement::total      4718778                       (Unspecified)
system.caches.L1Cache_Controller.M.Fwd_GETX |         525     13.60%     13.60% |        3334     86.40%    100.00% (Unspecified)
system.caches.L1Cache_Controller.M.Fwd_GETX::total         3859                       (Unspecified)
system.caches.L1Cache_Controller.M.Fwd_GETS |       13241     94.23%     94.23% |         811      5.77%    100.00% (Unspecified)
system.caches.L1Cache_Controller.M.Fwd_GETS::total        14052                       (Unspecified)
system.caches.L1Cache_Controller.IS.Data_Exclusive |       37111     49.46%     49.46% |       37918     50.54%    100.00% (Unspecified)
system.caches.L1Cache_Controller.IS.Data_Exclusive::total        75029                       (Unspecified)
system.caches.L1Cache_Controller.IS.DataS_fromL1 |        1894     12.20%     12.20% |       13628     87.80%    100.00% (Unspecified)
system.caches.L1Cache_Controller.IS.DataS_fromL1::total        15522                       (Unspecified)
system.caches.L1Cache_Controller.IS.Data_all_Acks |      105913     61.22%     61.22% |       67098     38.78%    100.00% (Unspecified)
system.caches.L1Cache_Controller.IS.Data_all_Acks::total       173011                       (Unspecified)
system.caches.L1Cache_Controller.IM.Data |          10     90.91%     90.91% |           1      9.09%    100.00% (Unspecified)
system.caches.L1Cache_Controller.IM.Data::total           11                       (Unspecified)
system.caches.L1Cache_Controller.IM.Data_all_Acks |     2357472     50.13%     50.13% |     2345232     49.87%    100.00% (Unspecified)
system.caches.L1Cache_Controller.IM.Data_all_Acks::total      4702704                       (Unspecified)
system.caches.L1Cache_Controller.SM.Inv  |           0      0.00%      0.00% |           1    100.00%    100.00% (Unspecified)
system.caches.L1Cache_Controller.SM.Inv::total            1                       (Unspecified)
system.caches.L1Cache_Controller.SM.Ack  |       13815     97.79%     97.79% |         312      2.21%    100.00% (Unspecified)
system.caches.L1Cache_Controller.SM.Ack::total        14127                       (Unspecified)
system.caches.L1Cache_Controller.SM.Ack_all |       13825     97.79%     97.79% |         313      2.21%    100.00% (Unspecified)
system.caches.L1Cache_Controller.SM.Ack_all::total        14138                       (Unspecified)
system.caches.L1Cache_Controller.M_I.WB_Ack |     2382894     50.16%     50.16% |     2367423     49.84%    100.00% (Unspecified)
system.caches.L1Cache_Controller.M_I.WB_Ack::total      4750317                       (Unspecified)
system.caches.Directory_Controller.Fetch      4697753      0.00%      0.00% (Unspecified)
system.caches.Directory_Controller.Data       4548827      0.00%      0.00% (Unspecified)
system.caches.Directory_Controller.Memory_Data      4697753      0.00%      0.00% (Unspecified)
system.caches.Directory_Controller.Memory_Ack      4548827      0.00%      0.00% (Unspecified)
system.caches.Directory_Controller.CleanReplacement        17854      0.00%      0.00% (Unspecified)
system.caches.Directory_Controller.I.Fetch      4697753      0.00%      0.00% (Unspecified)
system.caches.Directory_Controller.M.Data      4548827      0.00%      0.00% (Unspecified)
system.caches.Directory_Controller.M.CleanReplacement        17854      0.00%      0.00% (Unspecified)
system.caches.Directory_Controller.IM.Memory_Data      4697753      0.00%      0.00% (Unspecified)
system.caches.Directory_Controller.MI.Memory_Ack      4548827      0.00%      0.00% (Unspecified)
system.caches.L2Cache_Controller.L1_GET_INSTR |       21183     12.86%     12.86% |       21982     13.34%     26.20% |       24120     14.64%     40.85% |       10048      6.10%     46.95% |       10505      6.38%     53.32% |       19285     11.71%     65.03% |       21944     13.32%     78.35% |       35659     21.65%    100.00% (Unspecified)
system.caches.L2Cache_Controller.L1_GET_INSTR::total       164726                       (Unspecified)
system.caches.L2Cache_Controller.L1_GETS |       15185     14.71%     14.71% |       12675     12.28%     26.99% |       10714     10.38%     37.37% |       10549     10.22%     47.58% |       10604     10.27%     57.86% |       10421     10.09%     67.95% |       22157     21.46%     89.41% |       10930     10.59%    100.00% (Unspecified)
system.caches.L2Cache_Controller.L1_GETS::total       103235                       (Unspecified)
system.caches.L2Cache_Controller.L1_GETX |      588186     12.51%     12.51% |      587851     12.50%     25.01% |      587776     12.50%     37.51% |      587617     12.50%     50.00% |      587652     12.50%     62.50% |      588147     12.51%     75.00% |      587761     12.50%     87.50% |      587739     12.50%    100.00% (Unspecified)
system.caches.L2Cache_Controller.L1_GETX::total      4702729                       (Unspecified)
system.caches.L2Cache_Controller.L1_UPGRADE |        3783     21.57%     21.57% |        1959     11.17%     32.74% |         132      0.75%     33.49% |          77      0.44%     33.93% |         138      0.79%     34.72% |         152      0.87%     35.58% |       11209     63.91%     99.49% |          89      0.51%    100.00% (Unspecified)
system.caches.L2Cache_Controller.L1_UPGRADE::total        17539                       (Unspecified)
system.caches.L2Cache_Controller.L1_PUTX |      594083     12.51%     12.51% |      594003     12.50%     25.01% |      593914     12.50%     37.51% |      593545     12.49%     50.01% |      593660     12.50%     62.51% |      593700     12.50%     75.00% |      593705     12.50%     87.50% |      593707     12.50%    100.00% (Unspecified)
system.caches.L2Cache_Controller.L1_PUTX::total      4750317                       (Unspecified)
system.caches.L2Cache_Controller.L2_Replacement |      568065     12.50%     12.50% |      568027     12.50%     25.00% |      568104     12.50%     37.50% |      568062     12.50%     50.00% |      568043     12.50%     62.50% |      568090     12.50%     75.00% |      568105     12.50%     87.50% |      568090     12.50%    100.00% (Unspecified)
system.caches.L2Cache_Controller.L2_Replacement::total      4544586                       (Unspecified)
system.caches.L2Cache_Controller.L2_Replacement_clean |        2917     13.20%     13.20% |        3025     13.69%     26.89% |        2677     12.12%     39.01% |        2590     11.72%     50.73% |        2764     12.51%     63.24% |        2811     12.72%     75.96% |        2619     11.85%     87.82% |        2692     12.18%    100.00% (Unspecified)
system.caches.L2Cache_Controller.L2_Replacement_clean::total        22095                       (Unspecified)
system.caches.L2Cache_Controller.Mem_Data |      587366     12.50%     12.50% |      587436     12.50%     25.01% |      587165     12.50%     37.51% |      587036     12.50%     50.00% |      587191     12.50%     62.50% |      587285     12.50%     75.00% |      587108     12.50%     87.50% |      587166     12.50%    100.00% (Unspecified)
system.caches.L2Cache_Controller.Mem_Data::total      4697753                       (Unspecified)
system.caches.L2Cache_Controller.Mem_Ack |      570982     12.50%     12.50% |      571052     12.50%     25.01% |      570781     12.50%     37.51% |      570652     12.50%     50.00% |      570807     12.50%     62.50% |      570901     12.50%     75.00% |      570724     12.50%     87.50% |      570782     12.50%    100.00% (Unspecified)
system.caches.L2Cache_Controller.Mem_Ack::total      4566681                       (Unspecified)
system.caches.L2Cache_Controller.WB_Data |        4422     23.60%     23.60% |        2442     13.03%     36.63% |         468      2.50%     39.13% |         573      3.06%     42.19% |         663      3.54%     45.73% |        1014      5.41%     51.14% |        8387     44.76%     95.90% |         768      4.10%    100.00% (Unspecified)
system.caches.L2Cache_Controller.WB_Data::total        18737                       (Unspecified)
system.caches.L2Cache_Controller.WB_Data_clean |         328     22.31%     22.31% |         252     17.14%     39.46% |         184     12.52%     51.97% |         168     11.43%     63.40% |         188     12.79%     76.19% |         100      6.80%     82.99% |          93      6.33%     89.32% |         157     10.68%    100.00% (Unspecified)
system.caches.L2Cache_Controller.WB_Data_clean::total         1470                       (Unspecified)
system.caches.L2Cache_Controller.Ack     |        1415     14.26%     14.26% |        1299     13.09%     27.34% |        1263     12.72%     40.07% |        1177     11.86%     51.92% |        1306     13.16%     65.08% |        1160     11.69%     76.77% |        1195     12.04%     88.81% |        1111     11.19%    100.00% (Unspecified)
system.caches.L2Cache_Controller.Ack::total         9926                       (Unspecified)
system.caches.L2Cache_Controller.Ack_all |        2102     13.28%     13.28% |        2195     13.87%     27.15% |        2122     13.41%     40.55% |        1874     11.84%     52.39% |        2055     12.98%     65.37% |        1780     11.25%     76.62% |        1856     11.73%     88.34% |        1845     11.66%    100.00% (Unspecified)
system.caches.L2Cache_Controller.Ack_all::total        15829                       (Unspecified)
system.caches.L2Cache_Controller.Unblock |        4117     26.52%     26.52% |        2120     13.66%     40.18% |         321      2.07%     42.25% |         243      1.57%     43.82% |         329      2.12%     45.93% |         253      1.63%     47.56% |        7894     50.86%     98.42% |         245      1.58%    100.00% (Unspecified)
system.caches.L2Cache_Controller.Unblock::total        15522                       (Unspecified)
system.caches.L2Cache_Controller.Exclusive_Unblock |      601491     12.55%     12.55% |      599509     12.51%     25.06% |      597330     12.47%     37.53% |      596877     12.46%     49.98% |      597181     12.46%     62.45% |      597409     12.47%     74.91% |      604797     12.62%     87.54% |      597277     12.46%    100.00% (Unspecified)
system.caches.L2Cache_Controller.Exclusive_Unblock::total      4791871                       (Unspecified)
system.caches.L2Cache_Controller.NP.L1_GET_INSTR |        1518     12.67%     12.67% |        1609     13.43%     26.10% |        1503     12.55%     38.65% |        1456     12.15%     50.81% |        1530     12.77%     63.58% |        1470     12.27%     75.85% |        1496     12.49%     88.34% |        1397     11.66%    100.00% (Unspecified)
system.caches.L2Cache_Controller.NP.L1_GET_INSTR::total        11979                       (Unspecified)
system.caches.L2Cache_Controller.NP.L1_GETS |        5569     12.53%     12.53% |        5648     12.71%     25.24% |        5662     12.74%     37.98% |        5533     12.45%     50.43% |        5561     12.51%     62.94% |        5419     12.19%     75.14% |        5418     12.19%     87.33% |        5631     12.67%    100.00% (Unspecified)
system.caches.L2Cache_Controller.NP.L1_GETS::total        44441                       (Unspecified)
system.caches.L2Cache_Controller.NP.L1_GETX |      580279     12.50%     12.50% |      580179     12.50%     25.00% |      580000     12.50%     37.50% |      580047     12.50%     50.00% |      580100     12.50%     62.50% |      580396     12.50%     75.00% |      580194     12.50%     87.50% |      580138     12.50%    100.00% (Unspecified)
system.caches.L2Cache_Controller.NP.L1_GETX::total      4641333                       (Unspecified)
system.caches.L2Cache_Controller.SS.L1_GET_INSTR |       19396     12.88%     12.88% |       20064     13.32%     26.20% |       22395     14.87%     41.07% |        8327      5.53%     46.60% |        8655      5.75%     52.34% |       17515     11.63%     63.97% |       20185     13.40%     77.37% |       34084     22.63%    100.00% (Unspecified)
system.caches.L2Cache_Controller.SS.L1_GET_INSTR::total       150621                       (Unspecified)
system.caches.L2Cache_Controller.SS.L1_GETS |        1295     18.78%     18.78% |         652      9.46%     28.24% |         736     10.68%     38.92% |         925     13.42%     52.34% |         755     10.95%     63.29% |         911     13.21%     76.50% |         598      8.67%     85.18% |        1022     14.82%    100.00% (Unspecified)
system.caches.L2Cache_Controller.SS.L1_GETS::total         6894                       (Unspecified)
system.caches.L2Cache_Controller.SS.L1_GETX |           8     72.73%     72.73% |           0      0.00%     72.73% |           0      0.00%     72.73% |           1      9.09%     81.82% |           0      0.00%     81.82% |           0      0.00%     81.82% |           2     18.18%    100.00% |           0      0.00%    100.00% (Unspecified)
system.caches.L2Cache_Controller.SS.L1_GETX::total           11                       (Unspecified)
system.caches.L2Cache_Controller.SS.L1_UPGRADE |        3782     26.77%     26.77% |        1959     13.87%     40.64% |         132      0.93%     41.57% |          77      0.55%     42.12% |         138      0.98%     43.09% |         152      1.08%     44.17% |        7798     55.20%     99.37% |          89      0.63%    100.00% (Unspecified)
system.caches.L2Cache_Controller.SS.L1_UPGRADE::total        14127                       (Unspecified)
system.caches.L2Cache_Controller.SS.L2_Replacement |           3     11.11%     11.11% |           5     18.52%     29.63% |           6     22.22%     51.85% |           5     18.52%     70.37% |           4     14.81%     85.19% |           1      3.70%     88.89% |           2      7.41%     96.30% |           1      3.70%    100.00% (Unspecified)
system.caches.L2Cache_Controller.SS.L2_Replacement::total           27                       (Unspecified)
system.caches.L2Cache_Controller.SS.L2_Replacement_clean |        1899     13.95%     13.95% |        1806     13.27%     27.22% |        1745     12.82%     40.04% |        1664     12.22%     52.26% |        1731     12.72%     64.97% |        1588     11.67%     76.64% |        1586     11.65%     88.29% |        1594     11.71%    100.00% (Unspecified)
system.caches.L2Cache_Controller.SS.L2_Replacement_clean::total        13613                       (Unspecified)
system.caches.L2Cache_Controller.M.L1_GETS |        4076     13.03%     13.03% |        4152     13.27%     26.29% |        3876     12.39%     38.68% |        3746     11.97%     50.65% |        3891     12.43%     63.09% |        3760     12.02%     75.10% |        3867     12.36%     87.46% |        3924     12.54%    100.00% (Unspecified)
system.caches.L2Cache_Controller.M.L1_GETS::total        31292                       (Unspecified)
system.caches.L2Cache_Controller.M.L1_GETX |        7314     12.72%     12.72% |        7152     12.44%     25.16% |        7286     12.67%     37.83% |        7119     12.38%     50.21% |        7121     12.38%     62.59% |        7265     12.63%     75.22% |        7162     12.45%     87.68% |        7085     12.32%    100.00% (Unspecified)
system.caches.L2Cache_Controller.M.L1_GETX::total        57504                       (Unspecified)
system.caches.L2Cache_Controller.M.L2_Replacement |      567985     12.50%     12.50% |      567984     12.50%     25.00% |      568070     12.50%     37.50% |      568014     12.50%     50.00% |      567981     12.50%     62.50% |      568034     12.50%     75.00% |      568034     12.50%     87.50% |      568008     12.50%    100.00% (Unspecified)
system.caches.L2Cache_Controller.M.L2_Replacement::total      4544110                       (Unspecified)
system.caches.L2Cache_Controller.M.L2_Replacement_clean |         262     12.74%     12.74% |         299     14.54%     27.27% |         258     12.54%     39.82% |         266     12.93%     52.75% |         249     12.11%     64.85% |         226     10.99%     75.84% |         248     12.06%     87.89% |         249     12.11%    100.00% (Unspecified)
system.caches.L2Cache_Controller.M.L2_Replacement_clean::total         2057                       (Unspecified)
system.caches.L2Cache_Controller.MT.L1_GETS |        4117     26.52%     26.52% |        2120     13.66%     40.18% |         321      2.07%     42.25% |         243      1.57%     43.82% |         329      2.12%     45.93% |         253      1.63%     47.56% |        7894     50.86%     98.42% |         245      1.58%    100.00% (Unspecified)
system.caches.L2Cache_Controller.MT.L1_GETS::total        15522                       (Unspecified)
system.caches.L2Cache_Controller.MT.L1_GETX |         584     15.10%     15.10% |         518     13.40%     28.50% |         490     12.67%     41.17% |         445     11.51%     52.68% |         431     11.15%     63.82% |         484     12.52%     76.34% |         401     10.37%     86.71% |         514     13.29%    100.00% (Unspecified)
system.caches.L2Cache_Controller.MT.L1_GETX::total         3867                       (Unspecified)
system.caches.L2Cache_Controller.MT.L1_PUTX |      594083     12.51%     12.51% |      594003     12.50%     25.01% |      593914     12.50%     37.51% |      593545     12.49%     50.01% |      593660     12.50%     62.51% |      593700     12.50%     75.00% |      593705     12.50%     87.50% |      593707     12.50%    100.00% (Unspecified)
system.caches.L2Cache_Controller.MT.L1_PUTX::total      4750317                       (Unspecified)
system.caches.L2Cache_Controller.MT.L2_Replacement |          77     17.15%     17.15% |          38      8.46%     25.61% |          28      6.24%     31.85% |          43      9.58%     41.43% |          58     12.92%     54.34% |          55     12.25%     66.59% |          69     15.37%     81.96% |          81     18.04%    100.00% (Unspecified)
system.caches.L2Cache_Controller.MT.L2_Replacement::total          449                       (Unspecified)
system.caches.L2Cache_Controller.MT.L2_Replacement_clean |         756     11.77%     11.77% |         920     14.32%     26.09% |         674     10.49%     36.58% |         660     10.27%     46.85% |         784     12.20%     59.05% |         997     15.52%     74.57% |         785     12.22%     86.79% |         849     13.21%    100.00% (Unspecified)
system.caches.L2Cache_Controller.MT.L2_Replacement_clean::total         6425                       (Unspecified)
system.caches.L2Cache_Controller.M_I.L1_GET_INSTR |           2     11.76%     11.76% |           1      5.88%     17.65% |           1      5.88%     23.53% |           6     35.29%     58.82% |           1      5.88%     64.71% |           3     17.65%     82.35% |           2     11.76%     94.12% |           1      5.88%    100.00% (Unspecified)
system.caches.L2Cache_Controller.M_I.L1_GET_INSTR::total           17                       (Unspecified)
system.caches.L2Cache_Controller.M_I.L1_GETS |           2      5.26%      5.26% |           2      5.26%     10.53% |           2      5.26%     15.79% |          11     28.95%     44.74% |           6     15.79%     60.53% |          11     28.95%     89.47% |           0      0.00%     89.47% |           4     10.53%    100.00% (Unspecified)
system.caches.L2Cache_Controller.M_I.L1_GETS::total           38                       (Unspecified)
system.caches.L2Cache_Controller.M_I.L1_GETX |           1      7.69%      7.69% |           1      7.69%     15.38% |           0      0.00%     15.38% |           5     38.46%     53.85% |           0      0.00%     53.85% |           2     15.38%     69.23% |           2     15.38%     84.62% |           2     15.38%    100.00% (Unspecified)
system.caches.L2Cache_Controller.M_I.L1_GETX::total           13                       (Unspecified)
system.caches.L2Cache_Controller.M_I.Mem_Ack |      570982     12.50%     12.50% |      571052     12.50%     25.01% |      570781     12.50%     37.51% |      570652     12.50%     50.00% |      570807     12.50%     62.50% |      570901     12.50%     75.00% |      570724     12.50%     87.50% |      570782     12.50%    100.00% (Unspecified)
system.caches.L2Cache_Controller.M_I.Mem_Ack::total      4566681                       (Unspecified)
system.caches.L2Cache_Controller.MT_I.WB_Data |          76     17.12%     17.12% |          37      8.33%     25.45% |          27      6.08%     31.53% |          42      9.46%     40.99% |          58     13.06%     54.05% |          55     12.39%     66.44% |          68     15.32%     81.76% |          81     18.24%    100.00% (Unspecified)
system.caches.L2Cache_Controller.MT_I.WB_Data::total          444                       (Unspecified)
system.caches.L2Cache_Controller.MT_I.Ack_all |           1     20.00%     20.00% |           1     20.00%     40.00% |           1     20.00%     60.00% |           1     20.00%     80.00% |           0      0.00%     80.00% |           0      0.00%     80.00% |           1     20.00%    100.00% |           0      0.00%    100.00% (Unspecified)
system.caches.L2Cache_Controller.MT_I.Ack_all::total            5                       (Unspecified)
system.caches.L2Cache_Controller.MCT_I.WB_Data |         557     13.13%     13.13% |         537     12.66%     25.80% |         304      7.17%     32.96% |         456     10.75%     43.72% |         464     10.94%     54.66% |         806     19.00%     73.66% |         518     12.21%     85.88% |         599     14.12%    100.00% (Unspecified)
system.caches.L2Cache_Controller.MCT_I.WB_Data::total         4241                       (Unspecified)
system.caches.L2Cache_Controller.MCT_I.Ack_all |         199      9.11%      9.11% |         383     17.54%     26.65% |         370     16.94%     43.59% |         204      9.34%     52.93% |         320     14.65%     67.58% |         191      8.75%     76.33% |         267     12.23%     88.55% |         250     11.45%    100.00% (Unspecified)
system.caches.L2Cache_Controller.MCT_I.Ack_all::total         2184                       (Unspecified)
system.caches.L2Cache_Controller.I_I.Ack |        1412     14.26%     14.26% |        1294     13.07%     27.34% |        1257     12.70%     40.03% |        1172     11.84%     51.87% |        1302     13.15%     65.03% |        1159     11.71%     76.74% |        1193     12.05%     88.79% |        1110     11.21%    100.00% (Unspecified)
system.caches.L2Cache_Controller.I_I.Ack::total         9899                       (Unspecified)
system.caches.L2Cache_Controller.I_I.Ack_all |        1899     13.95%     13.95% |        1806     13.27%     27.22% |        1745     12.82%     40.04% |        1664     12.22%     52.26% |        1731     12.72%     64.97% |        1588     11.67%     76.64% |        1586     11.65%     88.29% |        1594     11.71%    100.00% (Unspecified)
system.caches.L2Cache_Controller.I_I.Ack_all::total        13613                       (Unspecified)
system.caches.L2Cache_Controller.S_I.Ack |           3     11.11%     11.11% |           5     18.52%     29.63% |           6     22.22%     51.85% |           5     18.52%     70.37% |           4     14.81%     85.19% |           1      3.70%     88.89% |           2      7.41%     96.30% |           1      3.70%    100.00% (Unspecified)
system.caches.L2Cache_Controller.S_I.Ack::total           27                       (Unspecified)
system.caches.L2Cache_Controller.S_I.Ack_all |           3     11.11%     11.11% |           5     18.52%     29.63% |           6     22.22%     51.85% |           5     18.52%     70.37% |           4     14.81%     85.19% |           1      3.70%     88.89% |           2      7.41%     96.30% |           1      3.70%    100.00% (Unspecified)
system.caches.L2Cache_Controller.S_I.Ack_all::total           27                       (Unspecified)
system.caches.L2Cache_Controller.ISS.L1_GETS |         121     17.19%     17.19% |          99     14.06%     31.25% |         116     16.48%     47.73% |          91     12.93%     60.65% |          61      8.66%     69.32% |          67      9.52%     78.84% |          45      6.39%     85.23% |         104     14.77%    100.00% (Unspecified)
system.caches.L2Cache_Controller.ISS.L1_GETS::total          704                       (Unspecified)
system.caches.L2Cache_Controller.ISS.Mem_Data |        5448     12.46%     12.46% |        5549     12.69%     25.14% |        5546     12.68%     37.82% |        5442     12.44%     50.27% |        5500     12.58%     62.84% |        5352     12.24%     75.08% |        5373     12.28%     87.36% |        5527     12.64%    100.00% (Unspecified)
system.caches.L2Cache_Controller.ISS.Mem_Data::total        43737                       (Unspecified)
system.caches.L2Cache_Controller.IS.L1_GET_INSTR |         267     12.66%     12.66% |         308     14.60%     27.26% |         221     10.48%     37.74% |         259     12.28%     50.02% |         319     15.13%     65.15% |         297     14.08%     79.23% |         261     12.38%     91.61% |         177      8.39%    100.00% (Unspecified)
system.caches.L2Cache_Controller.IS.L1_GET_INSTR::total         2109                       (Unspecified)
system.caches.L2Cache_Controller.IS.Mem_Data |        1639     12.92%     12.92% |        1708     13.47%     26.39% |        1619     12.77%     39.15% |        1547     12.20%     51.35% |        1591     12.54%     63.90% |        1537     12.12%     76.02% |        1541     12.15%     88.17% |        1501     11.83%    100.00% (Unspecified)
system.caches.L2Cache_Controller.IS.Mem_Data::total        12683                       (Unspecified)
system.caches.L2Cache_Controller.IM.L1_GETX |           0      0.00%      0.00% |           1    100.00%    100.00% |           0      0.00%    100.00% |           0      0.00%    100.00% |           0      0.00%    100.00% |           0      0.00%    100.00% |           0      0.00%    100.00% |           0      0.00%    100.00% (Unspecified)
system.caches.L2Cache_Controller.IM.L1_GETX::total            1                       (Unspecified)
system.caches.L2Cache_Controller.IM.Mem_Data |      580279     12.50%     12.50% |      580179     12.50%     25.00% |      580000     12.50%     37.50% |      580047     12.50%     50.00% |      580100     12.50%     62.50% |      580396     12.50%     75.00% |      580194     12.50%     87.50% |      580138     12.50%    100.00% (Unspecified)
system.caches.L2Cache_Controller.IM.Mem_Data::total      4641333                       (Unspecified)
system.caches.L2Cache_Controller.SS_MB.L1_GETS |           1      0.02%      0.02% |           0      0.00%      0.02% |           0      0.00%      0.02% |           0      0.00%      0.02% |           0      0.00%      0.02% |           0      0.00%      0.02% |        4334     99.98%    100.00% |           0      0.00%    100.00% (Unspecified)
system.caches.L2Cache_Controller.SS_MB.L1_GETS::total         4335                       (Unspecified)
system.caches.L2Cache_Controller.SS_MB.L1_UPGRADE |           1    100.00%    100.00% |           0      0.00%    100.00% |           0      0.00%    100.00% |           0      0.00%    100.00% |           0      0.00%    100.00% |           0      0.00%    100.00% |           0      0.00%    100.00% |           0      0.00%    100.00% (Unspecified)
system.caches.L2Cache_Controller.SS_MB.L1_UPGRADE::total            1                       (Unspecified)
system.caches.L2Cache_Controller.SS_MB.Exclusive_Unblock |        3790     26.81%     26.81% |        1959     13.86%     40.66% |         132      0.93%     41.60% |          78      0.55%     42.15% |         138      0.98%     43.12% |         152      1.08%     44.20% |        7800     55.17%     99.37% |          89      0.63%    100.00% (Unspecified)
system.caches.L2Cache_Controller.SS_MB.Exclusive_Unblock::total        14138                       (Unspecified)
system.caches.L2Cache_Controller.MT_MB.L1_GETS |           4     44.44%     44.44% |           2     22.22%     66.67% |           1     11.11%     77.78% |           0      0.00%     77.78% |           1     11.11%     88.89% |           0      0.00%     88.89% |           1     11.11%    100.00% |           0      0.00%    100.00% (Unspecified)
system.caches.L2Cache_Controller.MT_MB.L1_GETS::total            9                       (Unspecified)
system.caches.L2Cache_Controller.MT_MB.Exclusive_Unblock |      597701     12.51%     12.51% |      597550     12.51%     25.02% |      597198     12.50%     37.52% |      596799     12.49%     50.01% |      597043     12.50%     62.50% |      597257     12.50%     75.01% |      596997     12.50%     87.50% |      597188     12.50%    100.00% (Unspecified)
system.caches.L2Cache_Controller.MT_MB.Exclusive_Unblock::total      4777733                       (Unspecified)
system.caches.L2Cache_Controller.MT_IIB.WB_Data |        3789     26.96%     26.96% |        1868     13.29%     40.26% |         137      0.97%     41.23% |          75      0.53%     41.77% |         141      1.00%     42.77% |         153      1.09%     43.86% |        7801     55.52%     99.37% |          88      0.63%    100.00% (Unspecified)
system.caches.L2Cache_Controller.MT_IIB.WB_Data::total        14052                       (Unspecified)
system.caches.L2Cache_Controller.MT_IIB.WB_Data_clean |         328     22.31%     22.31% |         252     17.14%     39.46% |         184     12.52%     51.97% |         168     11.43%     63.40% |         188     12.79%     76.19% |         100      6.80%     82.99% |          93      6.33%     89.32% |         157     10.68%    100.00% (Unspecified)
system.caches.L2Cache_Controller.MT_IIB.WB_Data_clean::total         1470                       (Unspecified)
system.caches.L2Cache_Controller.MT_SB.L1_UPGRADE |           0      0.00%      0.00% |           0      0.00%      0.00% |           0      0.00%      0.00% |           0      0.00%      0.00% |           0      0.00%      0.00% |           0      0.00%      0.00% |        3411    100.00%    100.00% |           0      0.00%    100.00% (Unspecified)
system.caches.L2Cache_Controller.MT_SB.L1_UPGRADE::total         3411                       (Unspecified)
system.caches.L2Cache_Controller.MT_SB.Unblock |        4117     26.52%     26.52% |        2120     13.66%     40.18% |         321      2.07%     42.25% |         243      1.57%     43.82% |         329      2.12%     45.93% |         253      1.63%     47.56% |        7894     50.86%     98.42% |         245      1.58%    100.00% (Unspecified)
system.caches.L2Cache_Controller.MT_SB.Unblock::total        15522                       (Unspecified)
system.caches.RequestType.LD.latency_hist_seqr::bucket_size          512                       (Unspecified)
system.caches.RequestType.LD.latency_hist_seqr::max_bucket         5119                       (Unspecified)
system.caches.RequestType.LD.latency_hist_seqr::samples   1432764870                       (Unspecified)
system.caches.RequestType.LD.latency_hist_seqr::mean     1.024975                       (Unspecified)
system.caches.RequestType.LD.latency_hist_seqr::gmean     1.000316                       (Unspecified)
system.caches.RequestType.LD.latency_hist_seqr::stdev     4.584088                       (Unspecified)
system.caches.RequestType.LD.latency_hist_seqr |  1432723742    100.00%    100.00% |       38665      0.00%    100.00% |        1266      0.00%    100.00% |         544      0.00%    100.00% |         619      0.00%    100.00% |          34      0.00%    100.00% |           0      0.00%    100.00% |           0      0.00%    100.00% |           0      0.00%    100.00% |           0      0.00%    100.00% (Unspecified)
system.caches.RequestType.LD.latency_hist_seqr::total   1432764870                       (Unspecified)
system.caches.RequestType.LD.hit_latency_hist_seqr::bucket_size            1                       (Unspecified)
system.caches.RequestType.LD.hit_latency_hist_seqr::max_bucket            9                       (Unspecified)
system.caches.RequestType.LD.hit_latency_hist_seqr::samples   1432666017                       (Unspecified)
system.caches.RequestType.LD.hit_latency_hist_seqr::mean            1                       (Unspecified)
system.caches.RequestType.LD.hit_latency_hist_seqr::gmean            1                       (Unspecified)
system.caches.RequestType.LD.hit_latency_hist_seqr |           0      0.00%      0.00% |  1432666017    100.00%    100.00% |           0      0.00%    100.00% |           0      0.00%    100.00% |           0      0.00%    100.00% |           0      0.00%    100.00% |           0      0.00%    100.00% |           0      0.00%    100.00% |           0      0.00%    100.00% |           0      0.00%    100.00% (Unspecified)
system.caches.RequestType.LD.hit_latency_hist_seqr::total   1432666017                       (Unspecified)
system.caches.RequestType.LD.miss_latency_hist_seqr::bucket_size          512                       (Unspecified)
system.caches.RequestType.LD.miss_latency_hist_seqr::max_bucket         5119                       (Unspecified)
system.caches.RequestType.LD.miss_latency_hist_seqr::samples        98853                       (Unspecified)
system.caches.RequestType.LD.miss_latency_hist_seqr::mean   362.987628                       (Unspecified)
system.caches.RequestType.LD.miss_latency_hist_seqr::gmean    96.957709                       (Unspecified)
[...]
system.timingCpu0.exec_context.thread_0.statExecutedInstType::SimdSha1Hash2            0      0.00%     74.45% # Class of executed instruction. (Count)
system.timingCpu0.exec_context.thread_0.statExecutedInstType::SimdSha256Hash            0      0.00%     74.45% # Class of executed instruction. (Count)
system.timingCpu0.exec_context.thread_0.statExecutedInstType::SimdSha256Hash2            0      0.00%     74.45% # Class of executed instruction. (Count)
system.timingCpu0.exec_context.thread_0.statExecutedInstType::SimdShaSigma2            0      0.00%     74.45% # Class of executed instruction. (Count)
system.timingCpu0.exec_context.thread_0.statExecutedInstType::SimdShaSigma3            0      0.00%     74.45% # Class of executed instruction. (Count)
system.timingCpu0.exec_context.thread_0.statExecutedInstType::SimdPredAlu            0      0.00%     74.45% # Class of executed instruction. (Count)
system.timingCpu0.exec_context.thread_0.statExecutedInstType::MemRead     80559338      2.58%     77.03% # Class of executed instruction. (Count)
system.timingCpu0.exec_context.thread_0.statExecutedInstType::MemWrite     22923989      0.73%     77.76% # Class of executed instruction. (Count)
system.timingCpu0.exec_context.thread_0.statExecutedInstType::FloatMemRead    635685264     20.36%     98.12% # Class of executed instruction. (Count)
system.timingCpu0.exec_context.thread_0.statExecutedInstType::FloatMemWrite     58751845      1.88%    100.00% # Class of executed instruction. (Count)
system.timingCpu0.exec_context.thread_0.statExecutedInstType::IprAccess            0      0.00%    100.00% # Class of executed instruction. (Count)
system.timingCpu0.exec_context.thread_0.statExecutedInstType::InstPrefetch            0      0.00%    100.00% # Class of executed instruction. (Count)
system.timingCpu0.exec_context.thread_0.statExecutedInstType::total   3122487607                       # Class of executed instruction. (Count)
system.timingCpu0.mmu.dtb.rdAccesses        716288842                       # TLB accesses on read requests (Count)
system.timingCpu0.mmu.dtb.wrAccesses         81683012                       # TLB accesses on write requests (Count)
system.timingCpu0.mmu.dtb.rdMisses              44240                       # TLB misses on read requests (Count)
system.timingCpu0.mmu.dtb.wrMisses               7355                       # TLB misses on write requests (Count)
system.timingCpu0.mmu.dtb.walker.power_state.pwrStateResidencyTicks::UNDEFINED 19457721861500                       # Cumulative time (in ticks) in various power states (Tick)
system.timingCpu0.mmu.itb.rdAccesses                0                       # TLB accesses on read requests (Count)
system.timingCpu0.mmu.itb.wrAccesses       2349077061                       # TLB accesses on write requests (Count)
system.timingCpu0.mmu.itb.rdMisses                  0                       # TLB misses on read requests (Count)
system.timingCpu0.mmu.itb.wrMisses               3748                       # TLB misses on write requests (Count)
system.timingCpu0.mmu.itb.walker.power_state.pwrStateResidencyTicks::UNDEFINED 19457721861500                       # Cumulative time (in ticks) in various power states (Tick)
system.timingCpu0.power_state.numTransitions            4                       # Number of power state transitions (Count)
system.timingCpu0.power_state.ticksClkGated::samples            2                       # Distribution of time spent in the clock gated state (Tick)
system.timingCpu0.power_state.ticksClkGated::mean    208314875                       # Distribution of time spent in the clock gated state (Tick)
system.timingCpu0.power_state.ticksClkGated::stdev 163623271.729700                       # Distribution of time spent in the clock gated state (Tick)
system.timingCpu0.power_state.ticksClkGated::1000-5e+10            2    100.00%    100.00% # Distribution of time spent in the clock gated state (Tick)
system.timingCpu0.power_state.ticksClkGated::min_value     92615750                       # Distribution of time spent in the clock gated state (Tick)
system.timingCpu0.power_state.ticksClkGated::max_value    324014000                       # Distribution of time spent in the clock gated state (Tick)
system.timingCpu0.power_state.ticksClkGated::total            2                       # Distribution of time spent in the clock gated state (Tick)
system.timingCpu0.power_state.pwrStateResidencyTicks::ON 1685397847500                       # Cumulative time (in ticks) in various power states (Tick)
system.timingCpu0.power_state.pwrStateResidencyTicks::CLK_GATED    416629750                       # Cumulative time (in ticks) in various power states (Tick)
system.timingCpu0.power_state.pwrStateResidencyTicks::OFF 17771907384250                       # Cumulative time (in ticks) in various power states (Tick)
system.timingCpu0.thread_0.numInsts                 0                       # Number of Instructions committed (Count)
system.timingCpu0.thread_0.numOps                   0                       # Number of Ops committed (Count)
system.timingCpu0.thread_0.numMemRefs               0                       # Number of Memory References (Count)
system.timingCpu1.numCycles                8000000000                       # Number of cpu cycles simulated (Cycle)
system.timingCpu1.numWorkItemsStarted               0                       # Number of work items this cpu started (Count)
system.timingCpu1.numWorkItemsCompleted             0                       # Number of work items this cpu completed (Count)
system.timingCpu1.exec_context.thread_0.numInsts   1486730345                       # Number of instructions committed (Count)
system.timingCpu1.exec_context.thread_0.numOps   3121622839                       # Number of ops (including micro ops) committed (Count)
system.timingCpu1.exec_context.thread_0.numIntAluAccesses   1485551050                       # Number of integer alu accesses (Count)
system.timingCpu1.exec_context.thread_0.numFpAluAccesses   2387521377                       # Number of float alu accesses (Count)
system.timingCpu1.exec_context.thread_0.numVecAluAccesses            0                       # Number of vector alu accesses (Count)
system.timingCpu1.exec_context.thread_0.numCallsReturns     18533295                       # Number of times a function call or return occured (Count)
system.timingCpu1.exec_context.thread_0.numCondCtrlInsts      4147317                       # Number of instructions that are conditional controls (Count)
system.timingCpu1.exec_context.thread_0.numIntInsts   1485551050                       # Number of integer instructions (Count)
system.timingCpu1.exec_context.thread_0.numFpInsts   2387521377                       # Number of float instructions (Count)
system.timingCpu1.exec_context.thread_0.numVecInsts            0                       # Number of vector instructions (Count)
system.timingCpu1.exec_context.thread_0.numIntRegReads   1190506629                       # Number of times the integer registers were read (Count)
system.timingCpu1.exec_context.thread_0.numIntRegWrites    685647009                       # Number of times the integer registers were written (Count)
system.timingCpu1.exec_context.thread_0.numFpRegReads   4497478124                       # Number of times the floating registers were read (Count)
system.timingCpu1.exec_context.thread_0.numFpRegWrites   2328721491                       # Number of times the floating registers were written (Count)
system.timingCpu1.exec_context.thread_0.numVecRegReads            0                       # Number of times the vector registers were read (Count)
system.timingCpu1.exec_context.thread_0.numVecRegWrites            0                       # Number of times the vector registers were written (Count)
system.timingCpu1.exec_context.thread_0.numVecPredRegReads            0                       # Number of times the predicate registers were read (Count)
system.timingCpu1.exec_context.thread_0.numVecPredRegWrites            0                       # Number of times the predicate registers were written (Count)
system.timingCpu1.exec_context.thread_0.numCCRegReads     24420235                       # Number of times the CC registers were read (Count)
system.timingCpu1.exec_context.thread_0.numCCRegWrites    137242281                       # Number of times the CC registers were written (Count)
system.timingCpu1.exec_context.thread_0.numMiscRegReads   1218718838                       # Number of times the Misc registers were read (Count)
system.timingCpu1.exec_context.thread_0.numMiscRegWrites        82949                       # Number of times the Misc registers were written (Count)
system.timingCpu1.exec_context.thread_0.numMemRefs    797736225                       # Number of memory refs (Count)
system.timingCpu1.exec_context.thread_0.numLoadInsts    716408062                       # Number of load instructions (Count)
system.timingCpu1.exec_context.thread_0.numStoreInsts     81328163                       # Number of store instructions (Count)
system.timingCpu1.exec_context.thread_0.numIdleCycles            0                       # Number of idle cycles (Cycle)
system.timingCpu1.exec_context.thread_0.numBusyCycles   8000000000                       # Number of busy cycles (Cycle)
system.timingCpu1.exec_context.thread_0.notIdleFraction            1                       # Percentage of non-idle cycles (Ratio)
system.timingCpu1.exec_context.thread_0.idleFraction            0                       # Percentage of idle cycles (Ratio)
system.timingCpu1.exec_context.thread_0.numBranches     22885444                       # Number of branches fetched (Count)
system.timingCpu1.exec_context.thread_0.statExecutedInstType::No_OpClass        35902      0.00%      0.00% # Class of executed instruction. (Count)
system.timingCpu1.exec_context.thread_0.statExecutedInstType::IntAlu    765811997     24.53%     24.53% # Class of executed instruction. (Count)
system.timingCpu1.exec_context.thread_0.statExecutedInstType::IntMult      3143898      0.10%     24.63% # Class of executed instruction. (Count)
system.timingCpu1.exec_context.thread_0.statExecutedInstType::IntDiv        90607      0.00%     24.64% # Class of executed instruction. (Count)
system.timingCpu1.exec_context.thread_0.statExecutedInstType::FloatAdd     72028909      2.31%     26.94% # Class of executed instruction. (Count)
system.timingCpu1.exec_context.thread_0.statExecutedInstType::FloatCmp            0      0.00%     26.94% # Class of executed instruction. (Count)
system.timingCpu1.exec_context.thread_0.statExecutedInstType::FloatCvt          128      0.00%     26.94% # Class of executed instruction. (Count)
system.timingCpu1.exec_context.thread_0.statExecutedInstType::FloatMult            0      0.00%     26.94% # Class of executed instruction. (Count)
system.timingCpu1.exec_context.thread_0.statExecutedInstType::FloatMultAcc            0      0.00%     26.94% # Class of executed instruction. (Count)
system.timingCpu1.exec_context.thread_0.statExecutedInstType::FloatDiv            0      0.00%     26.94% # Class of executed instruction. (Count)
system.timingCpu1.exec_context.thread_0.statExecutedInstType::FloatMisc            0      0.00%     26.94% # Class of executed instruction. (Count)
system.timingCpu1.exec_context.thread_0.statExecutedInstType::FloatSqrt            0      0.00%     26.94% # Class of executed instruction. (Count)
system.timingCpu1.exec_context.thread_0.statExecutedInstType::SimdAdd           40      0.00%     26.94% # Class of executed instruction. (Count)
system.timingCpu1.exec_context.thread_0.statExecutedInstType::SimdAddAcc            0      0.00%     26.94% # Class of executed instruction. (Count)
system.timingCpu1.exec_context.thread_0.statExecutedInstType::SimdAlu    114030727      3.65%     30.60% # Class of executed instruction. (Count)
system.timingCpu1.exec_context.thread_0.statExecutedInstType::SimdCmp            0      0.00%     30.60% # Class of executed instruction. (Count)
system.timingCpu1.exec_context.thread_0.statExecutedInstType::SimdCvt           80      0.00%     30.60% # Class of executed instruction. (Count)
system.timingCpu1.exec_context.thread_0.statExecutedInstType::SimdMisc     57015380      1.83%     32.42% # Class of executed instruction. (Count)
system.timingCpu1.exec_context.thread_0.statExecutedInstType::SimdMult            0      0.00%     32.42% # Class of executed instruction. (Count)
system.timingCpu1.exec_context.thread_0.statExecutedInstType::SimdMultAcc            0      0.00%     32.42% # Class of executed instruction. (Count)
system.timingCpu1.exec_context.thread_0.statExecutedInstType::SimdShift            5      0.00%     32.42% # Class of executed instruction. (Count)
system.timingCpu1.exec_context.thread_0.statExecutedInstType::SimdShiftAcc            0      0.00%     32.42% # Class of executed instruction. (Count)
system.timingCpu1.exec_context.thread_0.statExecutedInstType::SimdDiv            0      0.00%     32.42% # Class of executed instruction. (Count)
system.timingCpu1.exec_context.thread_0.statExecutedInstType::SimdSqrt            0      0.00%     32.42% # Class of executed instruction. (Count)
system.timingCpu1.exec_context.thread_0.statExecutedInstType::SimdFloatAdd    611615682     19.59%     52.02% # Class of executed instruction. (Count)
system.timingCpu1.exec_context.thread_0.statExecutedInstType::SimdFloatAlu            0      0.00%     52.02% # Class of executed instruction. (Count)
system.timingCpu1.exec_context.thread_0.statExecutedInstType::SimdFloatCmp            0      0.00%     52.02% # Class of executed instruction. (Count)
system.timingCpu1.exec_context.thread_0.statExecutedInstType::SimdFloatCvt     57015340      1.83%     53.84% # Class of executed instruction. (Count)
system.timingCpu1.exec_context.thread_0.statExecutedInstType::SimdFloatDiv     28507670      0.91%     54.76% # Class of executed instruction. (Count)
system.timingCpu1.exec_context.thread_0.statExecutedInstType::SimdFloatMisc            0      0.00%     54.76% # Class of executed instruction. (Count)
system.timingCpu1.exec_context.thread_0.statExecutedInstType::SimdFloatMult    614590644     19.69%     74.44% # Class of executed instruction. (Count)
system.timingCpu1.exec_context.thread_0.statExecutedInstType::SimdFloatMultAcc            0      0.00%     74.44% # Class of executed instruction. (Count)
system.timingCpu1.exec_context.thread_0.statExecutedInstType::SimdFloatSqrt            0      0.00%     74.44% # Class of executed instruction. (Count)
system.timingCpu1.exec_context.thread_0.statExecutedInstType::SimdReduceAdd            0      0.00%     74.44% # Class of executed instruction. (Count)
system.timingCpu1.exec_context.thread_0.statExecutedInstType::SimdReduceAlu            0      0.00%     74.44% # Class of executed instruction. (Count)
system.timingCpu1.exec_context.thread_0.statExecutedInstType::SimdReduceCmp            0      0.00%     74.44% # Class of executed instruction. (Count)
system.timingCpu1.exec_context.thread_0.statExecutedInstType::SimdFloatReduceAdd            0      0.00%     74.44% # Class of executed instruction. (Count)
system.timingCpu1.exec_context.thread_0.statExecutedInstType::SimdFloatReduceCmp            0      0.00%     74.44% # Class of executed instruction. (Count)
system.timingCpu1.exec_context.thread_0.statExecutedInstType::SimdAes            0      0.00%     74.44% # Class of executed instruction. (Count)
system.timingCpu1.exec_context.thread_0.statExecutedInstType::SimdAesMix            0      0.00%     74.44% # Class of executed instruction. (Count)
system.timingCpu1.exec_context.thread_0.statExecutedInstType::SimdSha1Hash            0      0.00%     74.44% # Class of executed instruction. (Count)
system.timingCpu1.exec_context.thread_0.statExecutedInstType::SimdSha1Hash2            0      0.00%     74.44% # Class of executed instruction. (Count)
system.timingCpu1.exec_context.thread_0.statExecutedInstType::SimdSha256Hash            0      0.00%     74.44% # Class of executed instruction. (Count)
system.timingCpu1.exec_context.thread_0.statExecutedInstType::SimdSha256Hash2            0      0.00%     74.44% # Class of executed instruction. (Count)
system.timingCpu1.exec_context.thread_0.statExecutedInstType::SimdShaSigma2            0      0.00%     74.44% # Class of executed instruction. (Count)
system.timingCpu1.exec_context.thread_0.statExecutedInstType::SimdShaSigma3            0      0.00%     74.44% # Class of executed instruction. (Count)
system.timingCpu1.exec_context.thread_0.statExecutedInstType::SimdPredAlu            0      0.00%     74.44% # Class of executed instruction. (Count)
system.timingCpu1.exec_context.thread_0.statExecutedInstType::MemRead     80205211      2.57%     77.01% # Class of executed instruction. (Count)
system.timingCpu1.exec_context.thread_0.statExecutedInstType::MemWrite     22528445      0.72%     77.74% # Class of executed instruction. (Count)
system.timingCpu1.exec_context.thread_0.statExecutedInstType::FloatMemRead    636202851     20.38%     98.12% # Class of executed instruction. (Count)
system.timingCpu1.exec_context.thread_0.statExecutedInstType::FloatMemWrite     58799718      1.88%    100.00% # Class of executed instruction. (Count)
system.timingCpu1.exec_context.thread_0.statExecutedInstType::IprAccess            0      0.00%    100.00% # Class of executed instruction. (Count)
system.timingCpu1.exec_context.thread_0.statExecutedInstType::InstPrefetch            0      0.00%    100.00% # Class of executed instruction. (Count)
system.timingCpu1.exec_context.thread_0.statExecutedInstType::total   3121623234                       # Class of executed instruction. (Count)
system.timingCpu1.mmu.dtb.rdAccesses        716451615                       # TLB accesses on read requests (Count)
system.timingCpu1.mmu.dtb.wrAccesses         81336006                       # TLB accesses on write requests (Count)
system.timingCpu1.mmu.dtb.rdMisses              44976                       # TLB misses on read requests (Count)
system.timingCpu1.mmu.dtb.wrMisses               8677                       # TLB misses on write requests (Count)
system.timingCpu1.mmu.dtb.walker.power_state.pwrStateResidencyTicks::UNDEFINED 19457721861500                       # Cumulative time (in ticks) in various power states (Tick)
system.timingCpu1.mmu.itb.rdAccesses                0                       # TLB accesses on read requests (Count)
system.timingCpu1.mmu.itb.wrAccesses       2349467648                       # TLB accesses on write requests (Count)
system.timingCpu1.mmu.itb.rdMisses                  0                       # TLB misses on read requests (Count)
system.timingCpu1.mmu.itb.wrMisses               3910                       # TLB misses on write requests (Count)
system.timingCpu1.mmu.itb.walker.power_state.pwrStateResidencyTicks::UNDEFINED 19457721861500                       # Cumulative time (in ticks) in various power states (Tick)
system.timingCpu1.power_state.pwrStateResidencyTicks::OFF 19457721861500                       # Cumulative time (in ticks) in various power states (Tick)
system.timingCpu1.thread_0.numInsts                 0                       # Number of Instructions committed (Count)
system.timingCpu1.thread_0.numOps                   0                       # Number of Ops committed (Count)
system.timingCpu1.thread_0.numMemRefs               0                       # Number of Memory References (Count)
system.workload.inst.arm                            0                       # number of arm instructions executed (Count)
system.workload.inst.quiesce                        0                       # number of quiesce instructions executed (Count)

---------- End Simulation Statistics   ----------
