
---------- Begin Simulation Statistics ----------
simSeconds                                   0.122496                       # Number of seconds simulated (Second)
simTicks                                 122496252501                       # Number of ticks simulated (Tick)
finalTick                                159697774952001                       # Number of ticks from beginning of simulation (restored from checkpoints and never reset) (Tick)
simFreq                                  1000000000000                       # The number of ticks per simulated second ((Tick/Second))
hostSeconds                                    492.75                       # Real time elapsed on the host (Second)
hostTickRate                                248595328                       # The number of ticks simulated per host second (ticks/s) ((Tick/Second))
hostMemory                                    7366868                       # Number of bytes of host memory used (Byte)
simInsts                                  38403288687                       # Number of instructions simulated (Count)
simOps                                    38475438546                       # Number of ops (including micro ops) simulated (Count)
hostInstRate                                 77936062                       # Simulator instruction rate (inst/s) ((Count/Second))
hostOpRate                                   78082483                       # Simulator op (including micro ops) rate (op/s) ((Count/Second))
system.work_item_type0::samples                     1                       # Run time stat forwork_item_type0 (Unspecified)
system.work_item_type0::mean             122496252501                       # Run time stat forwork_item_type0 (Unspecified)
system.work_item_type0::gmean            122496252501.000046                       # Run time stat forwork_item_type0 (Unspecified)
system.work_item_type0::stdev                     nan                       # Run time stat forwork_item_type0 (Unspecified)
system.work_item_type0::0-8.58993e+09               0      0.00%      0.00% # Run time stat forwork_item_type0 (Unspecified)
system.work_item_type0::8.58993e+09-1.71799e+10            0      0.00%      0.00% # Run time stat forwork_item_type0 (Unspecified)
system.work_item_type0::1.71799e+10-2.57698e+10            0      0.00%      0.00% # Run time stat forwork_item_type0 (Unspecified)
system.work_item_type0::2.57698e+10-3.43597e+10            0      0.00%      0.00% # Run time stat forwork_item_type0 (Unspecified)
system.work_item_type0::3.43597e+10-4.29497e+10            0      0.00%      0.00% # Run time stat forwork_item_type0 (Unspecified)
system.work_item_type0::4.29497e+10-5.15396e+10            0      0.00%      0.00% # Run time stat forwork_item_type0 (Unspecified)
system.work_item_type0::5.15396e+10-6.01295e+10            0      0.00%      0.00% # Run time stat forwork_item_type0 (Unspecified)
system.work_item_type0::6.01295e+10-6.87195e+10            0      0.00%      0.00% # Run time stat forwork_item_type0 (Unspecified)
system.work_item_type0::6.87195e+10-7.73094e+10            0      0.00%      0.00% # Run time stat forwork_item_type0 (Unspecified)
system.work_item_type0::7.73094e+10-8.58993e+10            0      0.00%      0.00% # Run time stat forwork_item_type0 (Unspecified)
system.work_item_type0::8.58993e+10-9.44893e+10            0      0.00%      0.00% # Run time stat forwork_item_type0 (Unspecified)
system.work_item_type0::9.44893e+10-1.03079e+11            0      0.00%      0.00% # Run time stat forwork_item_type0 (Unspecified)
system.work_item_type0::1.03079e+11-1.11669e+11            0      0.00%      0.00% # Run time stat forwork_item_type0 (Unspecified)
system.work_item_type0::1.11669e+11-1.20259e+11            0      0.00%      0.00% # Run time stat forwork_item_type0 (Unspecified)
system.work_item_type0::1.20259e+11-1.28849e+11            1    100.00%    100.00% # Run time stat forwork_item_type0 (Unspecified)
system.work_item_type0::1.28849e+11-1.37439e+11            0      0.00%    100.00% # Run time stat forwork_item_type0 (Unspecified)
system.work_item_type0::1.37439e+11-1.46029e+11            0      0.00%    100.00% # Run time stat forwork_item_type0 (Unspecified)
system.work_item_type0::1.46029e+11-1.54619e+11            0      0.00%    100.00% # Run time stat forwork_item_type0 (Unspecified)
system.work_item_type0::1.54619e+11-1.63209e+11            0      0.00%    100.00% # Run time stat forwork_item_type0 (Unspecified)
system.work_item_type0::1.63209e+11-1.71799e+11            0      0.00%    100.00% # Run time stat forwork_item_type0 (Unspecified)
system.work_item_type0::total                       1                       # Run time stat forwork_item_type0 (Unspecified)
system.atomicCpu0.numCycles                         0                       # Number of cpu cycles simulated (Cycle)
system.atomicCpu0.numWorkItemsStarted               0                       # Number of work items this cpu started (Count)
system.atomicCpu0.numWorkItemsCompleted             0                       # Number of work items this cpu completed (Count)
system.atomicCpu0.exec_context.thread_0.numInsts            0                       # Number of instructions committed (Count)
system.atomicCpu0.exec_context.thread_0.numOps            0                       # Number of ops (including micro ops) committed (Count)
system.atomicCpu0.exec_context.thread_0.numIntAluAccesses            0                       # Number of integer alu accesses (Count)
system.atomicCpu0.exec_context.thread_0.numFpAluAccesses            0                       # Number of float alu accesses (Count)
system.atomicCpu0.exec_context.thread_0.numVecAluAccesses            0                       # Number of vector alu accesses (Count)
system.atomicCpu0.exec_context.thread_0.numCallsReturns            0                       # Number of times a function call or return occured (Count)
system.atomicCpu0.exec_context.thread_0.numCondCtrlInsts            0                       # Number of instructions that are conditional controls (Count)
system.atomicCpu0.exec_context.thread_0.numIntInsts            0                       # Number of integer instructions (Count)
system.atomicCpu0.exec_context.thread_0.numFpInsts            0                       # Number of float instructions (Count)
system.atomicCpu0.exec_context.thread_0.numVecInsts            0                       # Number of vector instructions (Count)
system.atomicCpu0.exec_context.thread_0.numIntRegReads            0                       # Number of times the integer registers were read (Count)
system.atomicCpu0.exec_context.thread_0.numIntRegWrites            0                       # Number of times the integer registers were written (Count)
system.atomicCpu0.exec_context.thread_0.numFpRegReads            0                       # Number of times the floating registers were read (Count)
system.atomicCpu0.exec_context.thread_0.numFpRegWrites            0                       # Number of times the floating registers were written (Count)
system.atomicCpu0.exec_context.thread_0.numVecRegReads            0                       # Number of times the vector registers were read (Count)
system.atomicCpu0.exec_context.thread_0.numVecRegWrites            0                       # Number of times the vector registers were written (Count)
system.atomicCpu0.exec_context.thread_0.numVecPredRegReads            0                       # Number of times the predicate registers were read (Count)
system.atomicCpu0.exec_context.thread_0.numVecPredRegWrites            0                       # Number of times the predicate registers were written (Count)
system.atomicCpu0.exec_context.thread_0.numMiscRegReads            0                       # Number of times the Misc registers were read (Count)
system.atomicCpu0.exec_context.thread_0.numMiscRegWrites            0                       # Number of times the Misc registers were written (Count)
system.atomicCpu0.exec_context.thread_0.numMemRefs            0                       # Number of memory refs (Count)
system.atomicCpu0.exec_context.thread_0.numLoadInsts            0                       # Number of load instructions (Count)
system.atomicCpu0.exec_context.thread_0.numStoreInsts            0                       # Number of store instructions (Count)
system.atomicCpu0.exec_context.thread_0.numIdleCycles            0                       # Number of idle cycles (Cycle)
system.atomicCpu0.exec_context.thread_0.numBusyCycles            0                       # Number of busy cycles (Cycle)
system.atomicCpu0.exec_context.thread_0.notIdleFraction            0                       # Percentage of non-idle cycles (Ratio)
system.atomicCpu0.exec_context.thread_0.idleFraction            1                       # Percentage of idle cycles (Ratio)
system.atomicCpu0.exec_context.thread_0.statExecutedInstType::No_OpClass            0                       # Class of executed instruction. (Count)
system.atomicCpu0.exec_context.thread_0.statExecutedInstType::IntAlu            0                       # Class of executed instruction. (Count)
system.atomicCpu0.exec_context.thread_0.statExecutedInstType::IntMult            0                       # Class of executed instruction. (Count)
system.atomicCpu0.exec_context.thread_0.statExecutedInstType::IntDiv            0                       # Class of executed instruction. (Count)
system.atomicCpu0.exec_context.thread_0.statExecutedInstType::FloatAdd            0                       # Class of executed instruction. (Count)
system.atomicCpu0.exec_context.thread_0.statExecutedInstType::FloatCmp            0                       # Class of executed instruction. (Count)
system.atomicCpu0.exec_context.thread_0.statExecutedInstType::FloatCvt            0                       # Class of executed instruction. (Count)
system.atomicCpu0.exec_context.thread_0.statExecutedInstType::FloatMult            0                       # Class of executed instruction. (Count)
system.atomicCpu0.exec_context.thread_0.statExecutedInstType::FloatMultAcc            0                       # Class of executed instruction. (Count)
system.atomicCpu0.exec_context.thread_0.statExecutedInstType::FloatDiv            0                       # Class of executed instruction. (Count)
system.atomicCpu0.exec_context.thread_0.statExecutedInstType::FloatMisc            0                       # Class of executed instruction. (Count)
system.atomicCpu0.exec_context.thread_0.statExecutedInstType::FloatSqrt            0                       # Class of executed instruction. (Count)
system.atomicCpu0.exec_context.thread_0.statExecutedInstType::SimdAdd            0                       # Class of executed instruction. (Count)
system.atomicCpu0.exec_context.thread_0.statExecutedInstType::SimdAddAcc            0                       # Class of executed instruction. (Count)
system.atomicCpu0.exec_context.thread_0.statExecutedInstType::SimdAlu            0                       # Class of executed instruction. (Count)
system.atomicCpu0.exec_context.thread_0.statExecutedInstType::SimdCmp            0                       # Class of executed instruction. (Count)
system.atomicCpu0.exec_context.thread_0.statExecutedInstType::SimdCvt            0                       # Class of executed instruction. (Count)
system.atomicCpu0.exec_context.thread_0.statExecutedInstType::SimdMisc            0                       # Class of executed instruction. (Count)
system.atomicCpu0.exec_context.thread_0.statExecutedInstType::SimdMult            0                       # Class of executed instruction. (Count)
system.atomicCpu0.exec_context.thread_0.statExecutedInstType::SimdMultAcc            0                       # Class of executed instruction. (Count)
system.atomicCpu0.exec_context.thread_0.statExecutedInstType::SimdShift            0                       # Class of executed instruction. (Count)
system.atomicCpu0.exec_context.thread_0.statExecutedInstType::SimdShiftAcc            0                       # Class of executed instruction. (Count)
system.atomicCpu0.exec_context.thread_0.statExecutedInstType::SimdDiv            0                       # Class of executed instruction. (Count)
system.atomicCpu0.exec_context.thread_0.statExecutedInstType::SimdSqrt            0                       # Class of executed instruction. (Count)
system.atomicCpu0.exec_context.thread_0.statExecutedInstType::SimdFloatAdd            0                       # Class of executed instruction. (Count)
system.atomicCpu0.exec_context.thread_0.statExecutedInstType::SimdFloatAlu            0                       # Class of executed instruction. (Count)
system.atomicCpu0.exec_context.thread_0.statExecutedInstType::SimdFloatCmp            0                       # Class of executed instruction. (Count)
system.atomicCpu0.exec_context.thread_0.statExecutedInstType::SimdFloatCvt            0                       # Class of executed instruction. (Count)
system.atomicCpu0.exec_context.thread_0.statExecutedInstType::SimdFloatDiv            0                       # Class of executed instruction. (Count)
system.atomicCpu0.exec_context.thread_0.statExecutedInstType::SimdFloatMisc            0                       # Class of executed instruction. (Count)
system.atomicCpu0.exec_context.thread_0.statExecutedInstType::SimdFloatMult            0                       # Class of executed instruction. (Count)
system.atomicCpu0.exec_context.thread_0.statExecutedInstType::SimdFloatMultAcc            0                       # Class of executed instruction. (Count)
system.atomicCpu0.exec_context.thread_0.statExecutedInstType::SimdFloatSqrt            0                       # Class of executed instruction. (Count)
system.atomicCpu0.exec_context.thread_0.statExecutedInstType::SimdReduceAdd            0                       # Class of executed instruction. (Count)
system.atomicCpu0.exec_context.thread_0.statExecutedInstType::SimdReduceAlu            0                       # Class of executed instruction. (Count)
system.atomicCpu0.exec_context.thread_0.statExecutedInstType::SimdReduceCmp            0                       # Class of executed instruction. (Count)
system.atomicCpu0.exec_context.thread_0.statExecutedInstType::SimdFloatReduceAdd            0                       # Class of executed instruction. (Count)
system.atomicCpu0.exec_context.thread_0.statExecutedInstType::SimdFloatReduceCmp            0                       # Class of executed instruction. (Count)
system.atomicCpu0.exec_context.thread_0.statExecutedInstType::SimdAes            0                       # Class of executed instruction. (Count)
system.atomicCpu0.exec_context.thread_0.statExecutedInstType::SimdAesMix            0                       # Class of executed instruction. (Count)
system.atomicCpu0.exec_context.thread_0.statExecutedInstType::SimdSha1Hash            0                       # Class of executed instruction. (Count)
system.atomicCpu0.exec_context.thread_0.statExecutedInstType::SimdSha1Hash2            0                       # Class of executed instruction. (Count)
system.atomicCpu0.exec_context.thread_0.statExecutedInstType::SimdSha256Hash            0                       # Class of executed instruction. (Count)
system.atomicCpu0.exec_context.thread_0.statExecutedInstType::SimdSha256Hash2            0                       # Class of executed instruction. (Count)
system.atomicCpu0.exec_context.thread_0.statExecutedInstType::SimdShaSigma2            0                       # Class of executed instruction. (Count)
system.atomicCpu0.exec_context.thread_0.statExecutedInstType::SimdShaSigma3            0                       # Class of executed instruction. (Count)
system.atomicCpu0.exec_context.thread_0.statExecutedInstType::SimdPredAlu            0                       # Class of executed instruction. (Count)
system.atomicCpu0.exec_context.thread_0.statExecutedInstType::MemRead            0                       # Class of executed instruction. (Count)
system.atomicCpu0.exec_context.thread_0.statExecutedInstType::MemWrite            0                       # Class of executed instruction. (Count)
system.atomicCpu0.exec_context.thread_0.statExecutedInstType::FloatMemRead            0                       # Class of executed instruction. (Count)
system.atomicCpu0.exec_context.thread_0.statExecutedInstType::FloatMemWrite            0                       # Class of executed instruction. (Count)
system.atomicCpu0.exec_context.thread_0.statExecutedInstType::IprAccess            0                       # Class of executed instruction. (Count)
system.atomicCpu0.exec_context.thread_0.statExecutedInstType::InstPrefetch            0                       # Class of executed instruction. (Count)
system.atomicCpu0.exec_context.thread_0.statExecutedInstType::total            0                       # Class of executed instruction. (Count)
system.atomicCpu0.mmu.dtb.rdAccesses                0                       # TLB accesses on read requests (Count)
system.atomicCpu0.mmu.dtb.wrAccesses                0                       # TLB accesses on write requests (Count)
system.atomicCpu0.mmu.dtb.rdMisses                  0                       # TLB misses on read requests (Count)
system.atomicCpu0.mmu.dtb.wrMisses                  0                       # TLB misses on write requests (Count)
system.atomicCpu0.mmu.dtb.walker.power_state.pwrStateResidencyTicks::UNDEFINED 159697774952001                       # Cumulative time (in ticks) in various power states (Tick)
system.atomicCpu0.mmu.itb.rdAccesses                0                       # TLB accesses on read requests (Count)
system.atomicCpu0.mmu.itb.wrAccesses                0                       # TLB accesses on write requests (Count)
system.atomicCpu0.mmu.itb.rdMisses                  0                       # TLB misses on read requests (Count)
system.atomicCpu0.mmu.itb.wrMisses                  0                       # TLB misses on write requests (Count)
system.atomicCpu0.mmu.itb.walker.power_state.pwrStateResidencyTicks::UNDEFINED 159697774952001                       # Cumulative time (in ticks) in various power states (Tick)
system.atomicCpu0.power_state.pwrStateResidencyTicks::OFF 159697774952001                       # Cumulative time (in ticks) in various power states (Tick)
system.atomicCpu0.thread_0.numInsts                 0                       # Number of Instructions committed (Count)
system.atomicCpu0.thread_0.numOps                   0                       # Number of Ops committed (Count)
system.atomicCpu0.thread_0.numMemRefs               0                       # Number of Memory References (Count)
system.atomicCpu1.numCycles                         0                       # Number of cpu cycles simulated (Cycle)
system.atomicCpu1.numWorkItemsStarted               0                       # Number of work items this cpu started (Count)
system.atomicCpu1.numWorkItemsCompleted             0                       # Number of work items this cpu completed (Count)
system.atomicCpu1.exec_context.thread_0.numInsts            0                       # Number of instructions committed (Count)
system.atomicCpu1.exec_context.thread_0.numOps            0                       # Number of ops (including micro ops) committed (Count)
system.atomicCpu1.exec_context.thread_0.numIntAluAccesses            0                       # Number of integer alu accesses (Count)
system.atomicCpu1.exec_context.thread_0.numFpAluAccesses            0                       # Number of float alu accesses (Count)
system.atomicCpu1.exec_context.thread_0.numVecAluAccesses            0                       # Number of vector alu accesses (Count)
system.atomicCpu1.exec_context.thread_0.numCallsReturns            0                       # Number of times a function call or return occured (Count)
system.atomicCpu1.exec_context.thread_0.numCondCtrlInsts            0                       # Number of instructions that are conditional controls (Count)
system.atomicCpu1.exec_context.thread_0.numIntInsts            0                       # Number of integer instructions (Count)
system.atomicCpu1.exec_context.thread_0.numFpInsts            0                       # Number of float instructions (Count)
system.atomicCpu1.exec_context.thread_0.numVecInsts            0                       # Number of vector instructions (Count)
system.atomicCpu1.exec_context.thread_0.numIntRegReads            0                       # Number of times the integer registers were read (Count)
system.atomicCpu1.exec_context.thread_0.numIntRegWrites            0                       # Number of times the integer registers were written (Count)
system.atomicCpu1.exec_context.thread_0.numFpRegReads            0                       # Number of times the floating registers were read (Count)
system.atomicCpu1.exec_context.thread_0.numFpRegWrites            0                       # Number of times the floating registers were written (Count)
system.atomicCpu1.exec_context.thread_0.numVecRegReads            0                       # Number of times the vector registers were read (Count)
system.atomicCpu1.exec_context.thread_0.numVecRegWrites            0                       # Number of times the vector registers were written (Count)
system.atomicCpu1.exec_context.thread_0.numVecPredRegReads            0                       # Number of times the predicate registers were read (Count)
system.atomicCpu1.exec_context.thread_0.numVecPredRegWrites            0                       # Number of times the predicate registers were written (Count)
system.atomicCpu1.exec_context.thread_0.numMiscRegReads            0                       # Number of times the Misc registers were read (Count)
system.atomicCpu1.exec_context.thread_0.numMiscRegWrites            0                       # Number of times the Misc registers were written (Count)
system.atomicCpu1.exec_context.thread_0.numMemRefs            0                       # Number of memory refs (Count)
system.atomicCpu1.exec_context.thread_0.numLoadInsts            0                       # Number of load instructions (Count)
system.atomicCpu1.exec_context.thread_0.numStoreInsts            0                       # Number of store instructions (Count)
system.atomicCpu1.exec_context.thread_0.numIdleCycles            0                       # Number of idle cycles (Cycle)
system.atomicCpu1.exec_context.thread_0.numBusyCycles            0                       # Number of busy cycles (Cycle)
system.atomicCpu1.exec_context.thread_0.notIdleFraction            0                       # Percentage of non-idle cycles (Ratio)
system.atomicCpu1.exec_context.thread_0.idleFraction            1                       # Percentage of idle cycles (Ratio)
system.atomicCpu1.exec_context.thread_0.statExecutedInstType::No_OpClass            0                       # Class of executed instruction. (Count)
system.atomicCpu1.exec_context.thread_0.statExecutedInstType::IntAlu            0                       # Class of executed instruction. (Count)
system.atomicCpu1.exec_context.thread_0.statExecutedInstType::IntMult            0                       # Class of executed instruction. (Count)
system.atomicCpu1.exec_context.thread_0.statExecutedInstType::IntDiv            0                       # Class of executed instruction. (Count)
system.atomicCpu1.exec_context.thread_0.statExecutedInstType::FloatAdd            0                       # Class of executed instruction. (Count)
system.atomicCpu1.exec_context.thread_0.statExecutedInstType::FloatCmp            0                       # Class of executed instruction. (Count)
system.atomicCpu1.exec_context.thread_0.statExecutedInstType::FloatCvt            0                       # Class of executed instruction. (Count)
system.atomicCpu1.exec_context.thread_0.statExecutedInstType::FloatMult            0                       # Class of executed instruction. (Count)
system.atomicCpu1.exec_context.thread_0.statExecutedInstType::FloatMultAcc            0                       # Class of executed instruction. (Count)
system.atomicCpu1.exec_context.thread_0.statExecutedInstType::FloatDiv            0                       # Class of executed instruction. (Count)
system.atomicCpu1.exec_context.thread_0.statExecutedInstType::FloatMisc            0                       # Class of executed instruction. (Count)
system.atomicCpu1.exec_context.thread_0.statExecutedInstType::FloatSqrt            0                       # Class of executed instruction. (Count)
system.atomicCpu1.exec_context.thread_0.statExecutedInstType::SimdAdd            0                       # Class of executed instruction. (Count)
system.atomicCpu1.exec_context.thread_0.statExecutedInstType::SimdAddAcc            0                       # Class of executed instruction. (Count)
system.atomicCpu1.exec_context.thread_0.statExecutedInstType::SimdAlu            0                       # Class of executed instruction. (Count)
system.atomicCpu1.exec_context.thread_0.statExecutedInstType::SimdCmp            0                       # Class of executed instruction. (Count)
system.atomicCpu1.exec_context.thread_0.statExecutedInstType::SimdCvt            0                       # Class of executed instruction. (Count)
system.atomicCpu1.exec_context.thread_0.statExecutedInstType::SimdMisc            0                       # Class of executed instruction. (Count)
system.atomicCpu1.exec_context.thread_0.statExecutedInstType::SimdMult            0                       # Class of executed instruction. (Count)
system.atomicCpu1.exec_context.thread_0.statExecutedInstType::SimdMultAcc            0                       # Class of executed instruction. (Count)
system.atomicCpu1.exec_context.thread_0.statExecutedInstType::SimdShift            0                       # Class of executed instruction. (Count)
system.atomicCpu1.exec_context.thread_0.statExecutedInstType::SimdShiftAcc            0                       # Class of executed instruction. (Count)
system.atomicCpu1.exec_context.thread_0.statExecutedInstType::SimdDiv            0                       # Class of executed instruction. (Count)
system.atomicCpu1.exec_context.thread_0.statExecutedInstType::SimdSqrt            0                       # Class of executed instruction. (Count)
system.atomicCpu1.exec_context.thread_0.statExecutedInstType::SimdFloatAdd            0                       # Class of executed instruction. (Count)
system.atomicCpu1.exec_context.thread_0.statExecutedInstType::SimdFloatAlu            0                       # Class of executed instruction. (Count)
system.atomicCpu1.exec_context.thread_0.statExecutedInstType::SimdFloatCmp            0                       # Class of executed instruction. (Count)
system.atomicCpu1.exec_context.thread_0.statExecutedInstType::SimdFloatCvt            0                       # Class of executed instruction. (Count)
system.atomicCpu1.exec_context.thread_0.statExecutedInstType::SimdFloatDiv            0                       # Class of executed instruction. (Count)
system.atomicCpu1.exec_context.thread_0.statExecutedInstType::SimdFloatMisc            0                       # Class of executed instruction. (Count)
system.atomicCpu1.exec_context.thread_0.statExecutedInstType::SimdFloatMult            0                       # Class of executed instruction. (Count)
system.atomicCpu1.exec_context.thread_0.statExecutedInstType::SimdFloatMultAcc            0                       # Class of executed instruction. (Count)
system.atomicCpu1.exec_context.thread_0.statExecutedInstType::SimdFloatSqrt            0                       # Class of executed instruction. (Count)
system.atomicCpu1.exec_context.thread_0.statExecutedInstType::SimdReduceAdd            0                       # Class of executed instruction. (Count)
system.atomicCpu1.exec_context.thread_0.statExecutedInstType::SimdReduceAlu            0                       # Class of executed instruction. (Count)
system.atomicCpu1.exec_context.thread_0.statExecutedInstType::SimdReduceCmp            0                       # Class of executed instruction. (Count)
system.atomicCpu1.exec_context.thread_0.statExecutedInstType::SimdFloatReduceAdd            0                       # Class of executed instruction. (Count)
system.atomicCpu1.exec_context.thread_0.statExecutedInstType::SimdFloatReduceCmp            0                       # Class of executed instruction. (Count)
system.atomicCpu1.exec_context.thread_0.statExecutedInstType::SimdAes            0                       # Class of executed instruction. (Count)
system.atomicCpu1.exec_context.thread_0.statExecutedInstType::SimdAesMix            0                       # Class of executed instruction. (Count)
system.atomicCpu1.exec_context.thread_0.statExecutedInstType::SimdSha1Hash            0                       # Class of executed instruction. (Count)
system.atomicCpu1.exec_context.thread_0.statExecutedInstType::SimdSha1Hash2            0                       # Class of executed instruction. (Count)
system.atomicCpu1.exec_context.thread_0.statExecutedInstType::SimdSha256Hash            0                       # Class of executed instruction. (Count)
system.atomicCpu1.exec_context.thread_0.statExecutedInstType::SimdSha256Hash2            0                       # Class of executed instruction. (Count)
system.atomicCpu1.exec_context.thread_0.statExecutedInstType::SimdShaSigma2            0                       # Class of executed instruction. (Count)
system.atomicCpu1.exec_context.thread_0.statExecutedInstType::SimdShaSigma3            0                       # Class of executed instruction. (Count)
system.atomicCpu1.exec_context.thread_0.statExecutedInstType::SimdPredAlu            0                       # Class of executed instruction. (Count)
system.atomicCpu1.exec_context.thread_0.statExecutedInstType::MemRead            0                       # Class of executed instruction. (Count)
system.atomicCpu1.exec_context.thread_0.statExecutedInstType::MemWrite            0                       # Class of executed instruction. (Count)
system.atomicCpu1.exec_context.thread_0.statExecutedInstType::FloatMemRead            0                       # Class of executed instruction. (Count)
system.atomicCpu1.exec_context.thread_0.statExecutedInstType::FloatMemWrite            0                       # Class of executed instruction. (Count)
system.atomicCpu1.exec_context.thread_0.statExecutedInstType::IprAccess            0                       # Class of executed instruction. (Count)
system.atomicCpu1.exec_context.thread_0.statExecutedInstType::InstPrefetch            0                       # Class of executed instruction. (Count)
system.atomicCpu1.exec_context.thread_0.statExecutedInstType::total            0                       # Class of executed instruction. (Count)
system.atomicCpu1.mmu.dtb.rdAccesses                0                       # TLB accesses on read requests (Count)
system.atomicCpu1.mmu.dtb.wrAccesses                0                       # TLB accesses on write requests (Count)
system.atomicCpu1.mmu.dtb.rdMisses                  0                       # TLB misses on read requests (Count)
system.atomicCpu1.mmu.dtb.wrMisses                  0                       # TLB misses on write requests (Count)
system.atomicCpu1.mmu.dtb.walker.power_state.pwrStateResidencyTicks::UNDEFINED 159697774952001                       # Cumulative time (in ticks) in various power states (Tick)
system.atomicCpu1.mmu.itb.rdAccesses                0                       # TLB accesses on read requests (Count)
system.atomicCpu1.mmu.itb.wrAccesses                0                       # TLB accesses on write requests (Count)
system.atomicCpu1.mmu.itb.rdMisses                  0                       # TLB misses on read requests (Count)
system.atomicCpu1.mmu.itb.wrMisses                  0                       # TLB misses on write requests (Count)
system.atomicCpu1.mmu.itb.walker.power_state.pwrStateResidencyTicks::UNDEFINED 159697774952001                       # Cumulative time (in ticks) in various power states (Tick)
system.atomicCpu1.power_state.pwrStateResidencyTicks::OFF 159697774952001                       # Cumulative time (in ticks) in various power states (Tick)
system.atomicCpu1.thread_0.numInsts                 0                       # Number of Instructions committed (Count)
system.atomicCpu1.thread_0.numOps                   0                       # Number of Ops committed (Count)
system.atomicCpu1.thread_0.numMemRefs               0                       # Number of Memory References (Count)
system.caches.delayHistogram::bucket_size          128                       # delay histogram for all message (Unspecified)
system.caches.delayHistogram::max_bucket         1279                       # delay histogram for all message (Unspecified)
system.caches.delayHistogram::samples        12698845                       # delay histogram for all message (Unspecified)
system.caches.delayHistogram::mean           0.174251                       # delay histogram for all message (Unspecified)
system.caches.delayHistogram::stdev          1.226553                       # delay histogram for all message (Unspecified)
system.caches.delayHistogram             |    12698835    100.00%    100.00% |           1      0.00%    100.00% |           3      0.00%    100.00% |           5      0.00%    100.00% |           0      0.00%    100.00% |           1      0.00%    100.00% |           0      0.00%    100.00% |           0      0.00%    100.00% |           0      0.00%    100.00% |           0      0.00%    100.00% # delay histogram for all message (Unspecified)
system.caches.delayHistogram::total          12698845                       # delay histogram for all message (Unspecified)
system.caches.m_outstandReqHistSeqr::bucket_size            1                       (Unspecified)
system.caches.m_outstandReqHistSeqr::max_bucket            9                       (Unspecified)
system.caches.m_outstandReqHistSeqr::samples    196447440                       (Unspecified)
system.caches.m_outstandReqHistSeqr::mean     1.000000                       (Unspecified)
system.caches.m_outstandReqHistSeqr::gmean     1.000000                       (Unspecified)
system.caches.m_outstandReqHistSeqr::stdev     0.000319                       (Unspecified)
system.caches.m_outstandReqHistSeqr      |           0      0.00%      0.00% |   196447420    100.00%    100.00% |          20      0.00%    100.00% |           0      0.00%    100.00% |           0      0.00%    100.00% |           0      0.00%    100.00% |           0      0.00%    100.00% |           0      0.00%    100.00% |           0      0.00%    100.00% |           0      0.00%    100.00% (Unspecified)
system.caches.m_outstandReqHistSeqr::total    196447440                       (Unspecified)
system.caches.m_latencyHistSeqr::bucket_size          512                       (Unspecified)
system.caches.m_latencyHistSeqr::max_bucket         5119                       (Unspecified)
system.caches.m_latencyHistSeqr::samples    196447439                       (Unspecified)
system.caches.m_latencyHistSeqr::mean        3.985374                       (Unspecified)
system.caches.m_latencyHistSeqr::gmean       1.054570                       (Unspecified)
system.caches.m_latencyHistSeqr::stdev      40.744756                       (Unspecified)
system.caches.m_latencyHistSeqr          |   196112629     99.83%     99.83% |      305980      0.16%     99.99% |        8857      0.00%     99.99% |       18388      0.01%    100.00% |        1574      0.00%    100.00% |          11      0.00%    100.00% |           0      0.00%    100.00% |           0      0.00%    100.00% |           0      0.00%    100.00% |           0      0.00%    100.00% (Unspecified)
system.caches.m_latencyHistSeqr::total      196447439                       (Unspecified)
system.caches.m_hitLatencyHistSeqr::bucket_size            1                       (Unspecified)
system.caches.m_hitLatencyHistSeqr::max_bucket            9                       (Unspecified)
system.caches.m_hitLatencyHistSeqr::samples    194144381                       (Unspecified)
system.caches.m_hitLatencyHistSeqr::mean            1                       (Unspecified)
system.caches.m_hitLatencyHistSeqr::gmean            1                       (Unspecified)
system.caches.m_hitLatencyHistSeqr       |           0      0.00%      0.00% |   194144381    100.00%    100.00% |           0      0.00%    100.00% |           0      0.00%    100.00% |           0      0.00%    100.00% |           0      0.00%    100.00% |           0      0.00%    100.00% |           0      0.00%    100.00% |           0      0.00%    100.00% |           0      0.00%    100.00% (Unspecified)
system.caches.m_hitLatencyHistSeqr::total    194144381                       (Unspecified)
system.caches.m_missLatencyHistSeqr::bucket_size          512                       (Unspecified)
system.caches.m_missLatencyHistSeqr::max_bucket         5119                       (Unspecified)
system.caches.m_missLatencyHistSeqr::samples      2303058                       (Unspecified)
system.caches.m_missLatencyHistSeqr::mean   255.648013                       (Unspecified)
system.caches.m_missLatencyHistSeqr::gmean    92.959611                       (Unspecified)
system.caches.m_missLatencyHistSeqr::stdev   278.427218                       (Unspecified)
system.caches.m_missLatencyHistSeqr      |     1968248     85.46%     85.46% |      305980     13.29%     98.75% |        8857      0.38%     99.13% |       18388      0.80%     99.93% |        1574      0.07%    100.00% |          11      0.00%    100.00% |           0      0.00%    100.00% |           0      0.00%    100.00% |           0      0.00%    100.00% |           0      0.00%    100.00% (Unspecified)
system.caches.m_missLatencyHistSeqr::total      2303058                       (Unspecified)
system.caches.delayVCHist.vnet_0::bucket_size          128                       # delay histogram for vnet_0 (Unspecified)
system.caches.delayVCHist.vnet_0::max_bucket         1279                       # delay histogram for vnet_0 (Unspecified)
system.caches.delayVCHist.vnet_0::samples      5894019                       # delay histogram for vnet_0 (Unspecified)
system.caches.delayVCHist.vnet_0::mean       0.374713                       # delay histogram for vnet_0 (Unspecified)
system.caches.delayVCHist.vnet_0::stdev      1.778343                       # delay histogram for vnet_0 (Unspecified)
system.caches.delayVCHist.vnet_0         |     5894009    100.00%    100.00% |           1      0.00%    100.00% |           3      0.00%    100.00% |           5      0.00%    100.00% |           0      0.00%    100.00% |           1      0.00%    100.00% |           0      0.00%    100.00% |           0      0.00%    100.00% |           0      0.00%    100.00% |           0      0.00%    100.00% # delay histogram for vnet_0 (Unspecified)
system.caches.delayVCHist.vnet_0::total       5894019                       # delay histogram for vnet_0 (Unspecified)
system.caches.delayVCHist.vnet_1::bucket_size            1                       # delay histogram for vnet_1 (Unspecified)
system.caches.delayVCHist.vnet_1::max_bucket            9                       # delay histogram for vnet_1 (Unspecified)
system.caches.delayVCHist.vnet_1::samples      6647916                       # delay histogram for vnet_1 (Unspecified)
system.caches.delayVCHist.vnet_1::mean       0.000630                       # delay histogram for vnet_1 (Unspecified)
system.caches.delayVCHist.vnet_1::stdev      0.058349                       # delay histogram for vnet_1 (Unspecified)
system.caches.delayVCHist.vnet_1         |     6646988     99.99%     99.99% |           0      0.00%     99.99% |         255      0.00%     99.99% |           0      0.00%     99.99% |         300      0.00%     99.99% |           0      0.00%     99.99% |         252      0.00%    100.00% |           0      0.00%    100.00% |         121      0.00%    100.00% |           0      0.00%    100.00% # delay histogram for vnet_1 (Unspecified)
system.caches.delayVCHist.vnet_1::total       6647916                       # delay histogram for vnet_1 (Unspecified)
system.caches.delayVCHist.vnet_2::bucket_size            1                       # delay histogram for vnet_2 (Unspecified)
system.caches.delayVCHist.vnet_2::max_bucket            9                       # delay histogram for vnet_2 (Unspecified)
system.caches.delayVCHist.vnet_2::samples       156910                       # delay histogram for vnet_2 (Unspecified)
system.caches.delayVCHist.vnet_2::mean       0.000217                       # delay histogram for vnet_2 (Unspecified)
system.caches.delayVCHist.vnet_2::stdev      0.020816                       # delay histogram for vnet_2 (Unspecified)
system.caches.delayVCHist.vnet_2         |      156893     99.99%     99.99% |           0      0.00%     99.99% |          17      0.01%    100.00% |           0      0.00%    100.00% |           0      0.00%    100.00% |           0      0.00%    100.00% |           0      0.00%    100.00% |           0      0.00%    100.00% |           0      0.00%    100.00% |           0      0.00%    100.00% # delay histogram for vnet_2 (Unspecified)
system.caches.delayVCHist.vnet_2::total        156910                       # delay histogram for vnet_2 (Unspecified)
system.caches.L1Cache_Controller.Load    |    17714440     50.05%     50.05% |    17675941     49.95%    100.00% (Unspecified)
system.caches.L1Cache_Controller.Load::total     35390381                       (Unspecified)
system.caches.L1Cache_Controller.Ifetch  |    79212204     50.00%     50.00% |    79200063     50.00%    100.00% (Unspecified)
system.caches.L1Cache_Controller.Ifetch::total    158412267                       (Unspecified)
system.caches.L1Cache_Controller.Store   |     1379450     52.16%     52.16% |     1265341     47.84%    100.00% (Unspecified)
system.caches.L1Cache_Controller.Store::total      2644791                       (Unspecified)
system.caches.L1Cache_Controller.Inv     |       46032     50.25%     50.25% |       45568     49.75%    100.00% (Unspecified)
system.caches.L1Cache_Controller.Inv::total        91600                       (Unspecified)
system.caches.L1Cache_Controller.L1_Replacement |     1115983     50.07%     50.07% |     1112833     49.93%    100.00% (Unspecified)
system.caches.L1Cache_Controller.L1_Replacement::total      2228816                       (Unspecified)
system.caches.L1Cache_Controller.Fwd_GETX |         188     40.43%     40.43% |         277     59.57%    100.00% (Unspecified)
system.caches.L1Cache_Controller.Fwd_GETX::total          465                       (Unspecified)
system.caches.L1Cache_Controller.Fwd_GETS |       32534     50.17%     50.17% |       32311     49.83%    100.00% (Unspecified)
system.caches.L1Cache_Controller.Fwd_GETS::total        64845                       (Unspecified)
system.caches.L1Cache_Controller.Data    |         203     99.51%     99.51% |           1      0.49%    100.00% (Unspecified)
system.caches.L1Cache_Controller.Data::total          204                       (Unspecified)
system.caches.L1Cache_Controller.Data_Exclusive |      875013     49.96%     49.96% |      876541     50.04%    100.00% (Unspecified)
system.caches.L1Cache_Controller.Data_Exclusive::total      1751554                       (Unspecified)
system.caches.L1Cache_Controller.DataS_fromL1 |       32311     49.83%     49.83% |       32534     50.17%    100.00% (Unspecified)
system.caches.L1Cache_Controller.DataS_fromL1::total        64845                       (Unspecified)
system.caches.L1Cache_Controller.Data_all_Acks |      223970     50.62%     50.62% |      218443     49.38%    100.00% (Unspecified)
system.caches.L1Cache_Controller.Data_all_Acks::total       442413                       (Unspecified)
system.caches.L1Cache_Controller.Ack     |       21563     48.96%     48.96% |       22479     51.04%    100.00% (Unspecified)
system.caches.L1Cache_Controller.Ack::total        44042                       (Unspecified)
system.caches.L1Cache_Controller.Ack_all |       21766     49.19%     49.19% |       22480     50.81%    100.00% (Unspecified)
system.caches.L1Cache_Controller.Ack_all::total        44246                       (Unspecified)
system.caches.L1Cache_Controller.WB_Ack  |      861231     50.01%     50.01% |      860750     49.99%    100.00% (Unspecified)
system.caches.L1Cache_Controller.WB_Ack::total      1721981                       (Unspecified)
system.caches.L1Cache_Controller.NP.Load |     1112772     49.95%     49.95% |     1115134     50.05%    100.00% (Unspecified)
system.caches.L1Cache_Controller.NP.Load::total      2227906                       (Unspecified)
system.caches.L1Cache_Controller.NP.Ifetch |        6319     61.93%     61.93% |        3884     38.07%    100.00% (Unspecified)
system.caches.L1Cache_Controller.NP.Ifetch::total        10203                       (Unspecified)
system.caches.L1Cache_Controller.NP.Store |        5594     68.98%     68.98% |        2516     31.02%    100.00% (Unspecified)
system.caches.L1Cache_Controller.NP.Store::total         8110                       (Unspecified)
system.caches.L1Cache_Controller.NP.Inv  |       32641     49.35%     49.35% |       33499     50.65%    100.00% (Unspecified)
system.caches.L1Cache_Controller.NP.Inv::total        66140                       (Unspecified)
system.caches.L1Cache_Controller.I.Load  |        4746     52.68%     52.68% |        4263     47.32%    100.00% (Unspecified)
system.caches.L1Cache_Controller.I.Load::total         9009                       (Unspecified)
system.caches.L1Cache_Controller.I.Ifetch |        1835     54.63%     54.63% |        1524     45.37%    100.00% (Unspecified)
system.caches.L1Cache_Controller.I.Ifetch::total         3359                       (Unspecified)
system.caches.L1Cache_Controller.I.Store |         231     53.97%     53.97% |         197     46.03%    100.00% (Unspecified)
system.caches.L1Cache_Controller.I.Store::total          428                       (Unspecified)
system.caches.L1Cache_Controller.I.L1_Replacement |        6745     52.29%     52.29% |        6154     47.71%    100.00% (Unspecified)
system.caches.L1Cache_Controller.I.L1_Replacement::total        12899                       (Unspecified)
system.caches.L1Cache_Controller.S.Load  |     9178088     49.18%     49.18% |     9485903     50.82%    100.00% (Unspecified)
system.caches.L1Cache_Controller.S.Load::total     18663991                       (Unspecified)
system.caches.L1Cache_Controller.S.Ifetch |    79204050     50.00%     50.00% |    79194655     50.00%    100.00% (Unspecified)
system.caches.L1Cache_Controller.S.Ifetch::total    158398705                       (Unspecified)
system.caches.L1Cache_Controller.S.Store |       21563     48.96%     48.96% |       22480     51.04%    100.00% (Unspecified)
system.caches.L1Cache_Controller.S.Store::total        44043                       (Unspecified)
system.caches.L1Cache_Controller.S.Inv   |       13001     52.62%     52.62% |       11706     47.38%    100.00% (Unspecified)
system.caches.L1Cache_Controller.S.Inv::total        24707                       (Unspecified)
system.caches.L1Cache_Controller.S.L1_Replacement |      248007     50.21%     50.21% |      245929     49.79%    100.00% (Unspecified)
system.caches.L1Cache_Controller.S.L1_Replacement::total       493936                       (Unspecified)
system.caches.L1Cache_Controller.E.Load  |     4388030     51.42%     51.42% |     4146478     48.58%    100.00% (Unspecified)
system.caches.L1Cache_Controller.E.Load::total      8534508                       (Unspecified)
system.caches.L1Cache_Controller.E.Store |      125628     50.40%     50.40% |      123633     49.60%    100.00% (Unspecified)
system.caches.L1Cache_Controller.E.Store::total       249261                       (Unspecified)
system.caches.L1Cache_Controller.E.Inv   |         278     50.27%     50.27% |         275     49.73%    100.00% (Unspecified)
system.caches.L1Cache_Controller.E.Inv::total          553                       (Unspecified)
system.caches.L1Cache_Controller.E.L1_Replacement |      724947     49.97%     49.97% |      725958     50.03%    100.00% (Unspecified)
system.caches.L1Cache_Controller.E.L1_Replacement::total      1450905                       (Unspecified)
system.caches.L1Cache_Controller.E.Fwd_GETX |           0      0.00%      0.00% |          37    100.00%    100.00% (Unspecified)
system.caches.L1Cache_Controller.E.Fwd_GETX::total           37                       (Unspecified)
system.caches.L1Cache_Controller.E.Fwd_GETS |       19308     50.84%     50.84% |       18668     49.16%    100.00% (Unspecified)
system.caches.L1Cache_Controller.E.Fwd_GETS::total        37976                       (Unspecified)
system.caches.L1Cache_Controller.M.Load  |     3030804     50.90%     50.90% |     2924163     49.10%    100.00% (Unspecified)
system.caches.L1Cache_Controller.M.Load::total      5954967                       (Unspecified)
system.caches.L1Cache_Controller.M.Store |     1226434     52.35%     52.35% |     1116515     47.65%    100.00% (Unspecified)
system.caches.L1Cache_Controller.M.Store::total      2342949                       (Unspecified)
system.caches.L1Cache_Controller.M.Inv   |         112     56.28%     56.28% |          87     43.72%    100.00% (Unspecified)
system.caches.L1Cache_Controller.M.Inv::total          199                       (Unspecified)
system.caches.L1Cache_Controller.M.L1_Replacement |      136284     50.28%     50.28% |      134792     49.72%    100.00% (Unspecified)
system.caches.L1Cache_Controller.M.L1_Replacement::total       271076                       (Unspecified)
system.caches.L1Cache_Controller.M.Fwd_GETX |         188     43.93%     43.93% |         240     56.07%    100.00% (Unspecified)
system.caches.L1Cache_Controller.M.Fwd_GETX::total          428                       (Unspecified)
system.caches.L1Cache_Controller.M.Fwd_GETS |       13226     49.22%     49.22% |       13643     50.78%    100.00% (Unspecified)
system.caches.L1Cache_Controller.M.Fwd_GETS::total        26869                       (Unspecified)
system.caches.L1Cache_Controller.IS.Data_Exclusive |      875013     49.96%     49.96% |      876541     50.04%    100.00% (Unspecified)
system.caches.L1Cache_Controller.IS.Data_Exclusive::total      1751554                       (Unspecified)
system.caches.L1Cache_Controller.IS.DataS_fromL1 |       32311     49.83%     49.83% |       32534     50.17%    100.00% (Unspecified)
system.caches.L1Cache_Controller.IS.DataS_fromL1::total        64845                       (Unspecified)
system.caches.L1Cache_Controller.IS.Data_all_Acks |      218348     50.30%     50.30% |      215730     49.70%    100.00% (Unspecified)
system.caches.L1Cache_Controller.IS.Data_all_Acks::total       434078                       (Unspecified)
system.caches.L1Cache_Controller.IM.Data |         203     99.51%     99.51% |           1      0.49%    100.00% (Unspecified)
system.caches.L1Cache_Controller.IM.Data::total          204                       (Unspecified)
system.caches.L1Cache_Controller.IM.Data_all_Acks |        5622     67.45%     67.45% |        2713     32.55%    100.00% (Unspecified)
system.caches.L1Cache_Controller.IM.Data_all_Acks::total         8335                       (Unspecified)
system.caches.L1Cache_Controller.SM.Inv  |           0      0.00%      0.00% |           1    100.00%    100.00% (Unspecified)
system.caches.L1Cache_Controller.SM.Inv::total            1                       (Unspecified)
system.caches.L1Cache_Controller.SM.Ack  |       21563     48.96%     48.96% |       22479     51.04%    100.00% (Unspecified)
system.caches.L1Cache_Controller.SM.Ack::total        44042                       (Unspecified)
system.caches.L1Cache_Controller.SM.Ack_all |       21766     49.19%     49.19% |       22480     50.81%    100.00% (Unspecified)
system.caches.L1Cache_Controller.SM.Ack_all::total        44246                       (Unspecified)
system.caches.L1Cache_Controller.M_I.WB_Ack |      861231     50.01%     50.01% |      860750     49.99%    100.00% (Unspecified)
system.caches.L1Cache_Controller.M_I.WB_Ack::total      1721981                       (Unspecified)
system.caches.Directory_Controller.Fetch      1298752      0.00%      0.00% (Unspecified)
system.caches.Directory_Controller.Data        174693      0.00%      0.00% (Unspecified)
system.caches.Directory_Controller.Memory_Data      1298752      0.00%      0.00% (Unspecified)
system.caches.Directory_Controller.Memory_Ack       174693      0.00%      0.00% (Unspecified)
system.caches.Directory_Controller.CleanReplacement       992987      0.00%      0.00% (Unspecified)
system.caches.Directory_Controller.I.Fetch      1298752      0.00%      0.00% (Unspecified)
system.caches.Directory_Controller.M.Data       174693      0.00%      0.00% (Unspecified)
system.caches.Directory_Controller.M.CleanReplacement       992987      0.00%      0.00% (Unspecified)
system.caches.Directory_Controller.IM.Memory_Data      1298752      0.00%      0.00% (Unspecified)
system.caches.Directory_Controller.MI.Memory_Ack       174693      0.00%      0.00% (Unspecified)
system.caches.L2Cache_Controller.L1_GET_INSTR |        1153      8.50%      8.50% |        2053     15.13%     23.63% |        1855     13.67%     37.30% |        1116      8.23%     45.53% |        1533     11.30%     56.82% |        1857     13.69%     70.51% |        1971     14.53%     85.04% |        2030     14.96%    100.00% (Unspecified)
system.caches.L2Cache_Controller.L1_GET_INSTR::total        13568                       (Unspecified)
system.caches.L2Cache_Controller.L1_GETS |      282310     12.62%     12.62% |      282819     12.64%     25.26% |      279443     12.49%     37.75% |      278853     12.46%     50.21% |      276635     12.36%     62.58% |      280779     12.55%     75.13% |      280397     12.53%     87.66% |      276050     12.34%    100.00% (Unspecified)
system.caches.L2Cache_Controller.L1_GETS::total      2237286                       (Unspecified)
system.caches.L2Cache_Controller.L1_GETX |        1395     16.31%     16.31% |        1202     14.06%     30.37% |         546      6.38%     36.75% |         789      9.23%     45.98% |         855     10.00%     55.98% |        1566     18.31%     74.29% |         962     11.25%     85.54% |        1237     14.46%    100.00% (Unspecified)
system.caches.L2Cache_Controller.L1_GETX::total         8552                       (Unspecified)
system.caches.L2Cache_Controller.L1_UPGRADE |        5507     12.42%     12.42% |        5630     12.70%     25.12% |        5532     12.48%     37.59% |        5377     12.13%     49.72% |        5283     11.91%     61.63% |        5406     12.19%     73.82% |        6274     14.15%     87.97% |        5335     12.03%    100.00% (Unspecified)
system.caches.L2Cache_Controller.L1_UPGRADE::total        44344                       (Unspecified)
system.caches.L2Cache_Controller.L1_PUTX |      216054     12.55%     12.55% |      216128     12.55%     25.10% |      214414     12.45%     37.55% |      213932     12.42%     49.97% |      215053     12.49%     62.46% |      216219     12.56%     75.02% |      215670     12.52%     87.54% |      214511     12.46%    100.00% (Unspecified)
system.caches.L2Cache_Controller.L1_PUTX::total      1721981                       (Unspecified)
system.caches.L2Cache_Controller.L2_Replacement |       21898     12.54%     12.54% |       21733     12.44%     24.98% |       21692     12.42%     37.41% |       21643     12.39%     49.80% |       21894     12.54%     62.34% |       21819     12.49%     74.83% |       21955     12.57%     87.40% |       21999     12.60%    100.00% (Unspecified)
system.caches.L2Cache_Controller.L2_Replacement::total       174633                       (Unspecified)
system.caches.L2Cache_Controller.L2_Replacement_clean |      124329     12.52%     12.52% |      124242     12.51%     25.03% |      123629     12.45%     37.48% |      123671     12.45%     49.93% |      124213     12.51%     62.44% |      124350     12.52%     74.96% |      124495     12.54%     87.50% |      124118     12.50%    100.00% (Unspecified)
system.caches.L2Cache_Controller.L2_Replacement_clean::total       993047                       (Unspecified)
system.caches.L2Cache_Controller.Mem_Data |      162611     12.52%     12.52% |      162359     12.50%     25.02% |      161705     12.45%     37.47% |      161698     12.45%     49.92% |      162491     12.51%     62.43% |      162553     12.52%     74.95% |      162834     12.54%     87.49% |      162501     12.51%    100.00% (Unspecified)
system.caches.L2Cache_Controller.Mem_Data::total      1298752                       (Unspecified)
system.caches.L2Cache_Controller.Mem_Ack |      146227     12.52%     12.52% |      145975     12.50%     25.02% |      145321     12.45%     37.47% |      145314     12.44%     49.91% |      146107     12.51%     62.43% |      146169     12.52%     74.94% |      146450     12.54%     87.49% |      146117     12.51%    100.00% (Unspecified)
system.caches.L2Cache_Controller.Mem_Ack::total      1167680                       (Unspecified)
system.caches.L2Cache_Controller.WB_Data |        3444     12.72%     12.72% |        3299     12.19%     24.91% |        3213     11.87%     36.78% |        3201     11.83%     48.61% |        3269     12.08%     60.68% |        3355     12.39%     73.08% |        3965     14.65%     87.73% |        3322     12.27%    100.00% (Unspecified)
system.caches.L2Cache_Controller.WB_Data::total        27068                       (Unspecified)
system.caches.L2Cache_Controller.WB_Data_clean |        4784     12.60%     12.60% |        4866     12.81%     25.41% |        4880     12.85%     38.26% |        4728     12.45%     50.71% |        4595     12.10%     62.81% |        4804     12.65%     75.46% |        4682     12.33%     87.79% |        4637     12.21%    100.00% (Unspecified)
system.caches.L2Cache_Controller.WB_Data_clean::total        37976                       (Unspecified)
system.caches.L2Cache_Controller.Ack     |        2731     12.31%     12.31% |        2735     12.32%     24.63% |        2741     12.35%     36.98% |        2720     12.26%     49.24% |        2781     12.53%     61.77% |        2927     13.19%     74.96% |        2773     12.50%     87.46% |        2783     12.54%    100.00% (Unspecified)
system.caches.L2Cache_Controller.Ack::total        22191                       (Unspecified)
system.caches.L2Cache_Controller.Ack_all |        3114     12.47%     12.47% |        3097     12.41%     24.88% |        3098     12.41%     37.29% |        3054     12.23%     49.52% |        3109     12.45%     61.98% |        3271     13.10%     75.08% |        3099     12.41%     87.49% |        3122     12.51%    100.00% (Unspecified)
system.caches.L2Cache_Controller.Ack_all::total        24964                       (Unspecified)
system.caches.L2Cache_Controller.Unblock |        8192     12.63%     12.63% |        8141     12.55%     25.19% |        8078     12.46%     37.65% |        7911     12.20%     49.85% |        7842     12.09%     61.94% |        8126     12.53%     74.47% |        8626     13.30%     87.77% |        7929     12.23%    100.00% (Unspecified)
system.caches.L2Cache_Controller.Unblock::total        64845                       (Unspecified)
system.caches.L2Cache_Controller.Exclusive_Unblock |      226408     12.55%     12.55% |      226736     12.57%     25.12% |      224577     12.45%     37.56% |      223943     12.41%     49.98% |      225005     12.47%     62.45% |      226487     12.55%     75.00% |      226413     12.55%     87.55% |      224566     12.45%    100.00% (Unspecified)
system.caches.L2Cache_Controller.Exclusive_Unblock::total      1804135                       (Unspecified)
system.caches.L2Cache_Controller.NP.L1_GET_INSTR |         665     12.60%     12.60% |         700     13.26%     25.86% |         659     12.48%     38.34% |         652     12.35%     50.69% |         658     12.46%     63.16% |         674     12.77%     75.92% |         619     11.73%     87.65% |         652     12.35%    100.00% (Unspecified)
system.caches.L2Cache_Controller.NP.L1_GET_INSTR::total         5279                       (Unspecified)
system.caches.L2Cache_Controller.NP.L1_GETS |      161612     12.52%     12.52% |      161338     12.50%     25.02% |      160739     12.45%     37.47% |      160729     12.45%     49.92% |      161520     12.51%     62.43% |      161549     12.51%     74.95% |      161887     12.54%     87.49% |      161513     12.51%    100.00% (Unspecified)
system.caches.L2Cache_Controller.NP.L1_GETS::total      1290887                       (Unspecified)
system.caches.L2Cache_Controller.NP.L1_GETX |         334     12.92%     12.92% |         321     12.41%     25.33% |         307     11.87%     37.20% |         317     12.26%     49.46% |         313     12.10%     61.56% |         330     12.76%     74.32% |         328     12.68%     87.01% |         336     12.99%    100.00% (Unspecified)
system.caches.L2Cache_Controller.NP.L1_GETX::total         2586                       (Unspecified)
system.caches.L2Cache_Controller.SS.L1_GET_INSTR |         381      5.13%      5.13% |        1226     16.51%     21.64% |        1097     14.77%     36.41% |         356      4.79%     41.21% |         752     10.13%     51.33% |        1067     14.37%     65.70% |        1265     17.03%     82.74% |        1282     17.26%    100.00% (Unspecified)
system.caches.L2Cache_Controller.SS.L1_GET_INSTR::total         7426                       (Unspecified)
system.caches.L2Cache_Controller.SS.L1_GETS |       54555     12.98%     12.98% |       54723     13.02%     26.00% |       52824     12.57%     38.57% |       53144     12.64%     51.21% |       49900     11.87%     63.09% |       53120     12.64%     75.73% |       51915     12.35%     88.08% |       50103     11.92%    100.00% (Unspecified)
system.caches.L2Cache_Controller.SS.L1_GETS::total       420284                       (Unspecified)
system.caches.L2Cache_Controller.SS.L1_GETX |         135     66.18%     66.18% |           0      0.00%     66.18% |           1      0.49%     66.67% |           0      0.00%     66.67% |           4      1.96%     68.63% |           0      0.00%     68.63% |          63     30.88%     99.51% |           1      0.49%    100.00% (Unspecified)
system.caches.L2Cache_Controller.SS.L1_GETX::total          204                       (Unspecified)
system.caches.L2Cache_Controller.SS.L1_UPGRADE |        5507     12.50%     12.50% |        5630     12.78%     25.29% |        5532     12.56%     37.85% |        5377     12.21%     50.06% |        5283     12.00%     62.05% |        5405     12.27%     74.32% |        5973     13.56%     87.89% |        5335     12.11%    100.00% (Unspecified)
system.caches.L2Cache_Controller.SS.L1_UPGRADE::total        44042                       (Unspecified)
system.caches.L2Cache_Controller.SS.L2_Replacement |        1976     12.42%     12.42% |        1935     12.17%     24.59% |        1967     12.37%     36.95% |        2001     12.58%     49.53% |        1996     12.55%     62.08% |        1983     12.47%     74.55% |        2004     12.60%     87.15% |        2044     12.85%    100.00% (Unspecified)
system.caches.L2Cache_Controller.SS.L2_Replacement::total        15906                       (Unspecified)
system.caches.L2Cache_Controller.SS.L2_Replacement_clean |        1046     12.30%     12.30% |        1094     12.86%     25.16% |        1061     12.48%     37.64% |        1001     11.77%     49.41% |        1048     12.32%     61.73% |        1213     14.26%     75.99% |        1021     12.00%     88.00% |        1021     12.00%    100.00% (Unspecified)
system.caches.L2Cache_Controller.SS.L2_Replacement_clean::total         8505                       (Unspecified)
system.caches.L2Cache_Controller.M.L1_GETS |       57922     12.57%     12.57% |       58593     12.72%     25.29% |       57781     12.54%     37.83% |       57059     12.38%     50.21% |       57359     12.45%     62.66% |       57975     12.58%     75.24% |       57602     12.50%     87.74% |       56492     12.26%    100.00% (Unspecified)
system.caches.L2Cache_Controller.M.L1_GETS::total       460783                       (Unspecified)
system.caches.L2Cache_Controller.M.L1_GETX |         876     16.58%     16.58% |         520      9.84%     26.42% |         236      4.47%     30.89% |         459      8.69%     39.57% |         532     10.07%     49.64% |        1222     23.13%     72.77% |         563     10.65%     83.42% |         876     16.58%    100.00% (Unspecified)
system.caches.L2Cache_Controller.M.L1_GETX::total         5284                       (Unspecified)
system.caches.L2Cache_Controller.M.L2_Replacement |       19896     12.55%     12.55% |       19770     12.47%     25.02% |       19708     12.43%     37.45% |       19624     12.38%     49.83% |       19878     12.54%     62.37% |       19801     12.49%     74.86% |       19930     12.57%     87.43% |       19929     12.57%    100.00% (Unspecified)
system.caches.L2Cache_Controller.M.L2_Replacement::total       158536                       (Unspecified)
system.caches.L2Cache_Controller.M.L2_Replacement_clean |      123181     12.52%     12.52% |      123084     12.51%     25.03% |      122500     12.45%     37.48% |      122618     12.46%     49.94% |      123098     12.51%     62.45% |      123064     12.51%     74.96% |      123400     12.54%     87.50% |      123036     12.50%    100.00% (Unspecified)
system.caches.L2Cache_Controller.M.L2_Replacement_clean::total       983981                       (Unspecified)
system.caches.L2Cache_Controller.MT.L1_GETS |        8192     12.63%     12.63% |        8141     12.55%     25.19% |        8078     12.46%     37.65% |        7911     12.20%     49.85% |        7842     12.09%     61.94% |        8126     12.53%     74.47% |        8626     13.30%     87.77% |        7929     12.23%    100.00% (Unspecified)
system.caches.L2Cache_Controller.MT.L1_GETS::total        64845                       (Unspecified)
system.caches.L2Cache_Controller.MT.L1_GETX |          49     10.54%     10.54% |         357     76.77%     87.31% |           1      0.22%     87.53% |          12      2.58%     90.11% |           4      0.86%     90.97% |          13      2.80%     93.76% |           6      1.29%     95.05% |          23      4.95%    100.00% (Unspecified)
system.caches.L2Cache_Controller.MT.L1_GETX::total          465                       (Unspecified)
system.caches.L2Cache_Controller.MT.L1_PUTX |      216054     12.55%     12.55% |      216128     12.55%     25.10% |      214414     12.45%     37.55% |      213932     12.42%     49.97% |      215053     12.49%     62.46% |      216219     12.56%     75.02% |      215670     12.52%     87.54% |      214511     12.46%    100.00% (Unspecified)
system.caches.L2Cache_Controller.MT.L1_PUTX::total      1721981                       (Unspecified)
system.caches.L2Cache_Controller.MT.L2_Replacement |          26     13.61%     13.61% |          28     14.66%     28.27% |          17      8.90%     37.17% |          18      9.42%     46.60% |          20     10.47%     57.07% |          35     18.32%     75.39% |          21     10.99%     86.39% |          26     13.61%    100.00% (Unspecified)
system.caches.L2Cache_Controller.MT.L2_Replacement::total          191                       (Unspecified)
system.caches.L2Cache_Controller.MT.L2_Replacement_clean |         102     18.18%     18.18% |          64     11.41%     29.59% |          68     12.12%     41.71% |          52      9.27%     50.98% |          67     11.94%     62.92% |          73     13.01%     75.94% |          74     13.19%     89.13% |          61     10.87%    100.00% (Unspecified)
system.caches.L2Cache_Controller.MT.L2_Replacement_clean::total          561                       (Unspecified)
system.caches.L2Cache_Controller.M_I.L1_GET_INSTR |           0      0.00%      0.00% |           0      0.00%      0.00% |           3     50.00%     50.00% |           2     33.33%     83.33% |           1     16.67%    100.00% |           0      0.00%    100.00% |           0      0.00%    100.00% |           0      0.00%    100.00% (Unspecified)
system.caches.L2Cache_Controller.M_I.L1_GET_INSTR::total            6                       (Unspecified)
system.caches.L2Cache_Controller.M_I.L1_GETS |           0      0.00%      0.00% |           0      0.00%      0.00% |           1     25.00%     25.00% |           0      0.00%     25.00% |           0      0.00%     25.00% |           2     50.00%     75.00% |           1     25.00%    100.00% |           0      0.00%    100.00% (Unspecified)
system.caches.L2Cache_Controller.M_I.L1_GETS::total            4                       (Unspecified)
system.caches.L2Cache_Controller.M_I.L1_GETX |           0      0.00%      0.00% |           1    100.00%    100.00% |           0      0.00%    100.00% |           0      0.00%    100.00% |           0      0.00%    100.00% |           0      0.00%    100.00% |           0      0.00%    100.00% |           0      0.00%    100.00% (Unspecified)
system.caches.L2Cache_Controller.M_I.L1_GETX::total            1                       (Unspecified)
system.caches.L2Cache_Controller.M_I.Mem_Ack |      146227     12.52%     12.52% |      145975     12.50%     25.02% |      145321     12.45%     37.47% |      145314     12.44%     49.91% |      146107     12.51%     62.43% |      146169     12.52%     74.94% |      146450     12.54%     87.49% |      146117     12.51%    100.00% (Unspecified)
system.caches.L2Cache_Controller.M_I.Mem_Ack::total      1167680                       (Unspecified)
system.caches.L2Cache_Controller.MT_I.WB_Data |          23     16.55%     16.55% |          18     12.95%     29.50% |           9      6.47%     35.97% |          14     10.07%     46.04% |          16     11.51%     57.55% |          23     16.55%     74.10% |          14     10.07%     84.17% |          22     15.83%    100.00% (Unspecified)
system.caches.L2Cache_Controller.MT_I.WB_Data::total          139                       (Unspecified)
system.caches.L2Cache_Controller.MT_I.Ack_all |           3      5.77%      5.77% |          10     19.23%     25.00% |           8     15.38%     40.38% |           4      7.69%     48.08% |           4      7.69%     55.77% |          12     23.08%     78.85% |           7     13.46%     92.31% |           4      7.69%    100.00% (Unspecified)
system.caches.L2Cache_Controller.MT_I.Ack_all::total           52                       (Unspecified)
system.caches.L2Cache_Controller.MCT_I.WB_Data |          13     21.67%     21.67% |           6     10.00%     31.67% |           6     10.00%     41.67% |           4      6.67%     48.33% |           6     10.00%     58.33% |          10     16.67%     75.00% |           7     11.67%     86.67% |           8     13.33%    100.00% (Unspecified)
system.caches.L2Cache_Controller.MCT_I.WB_Data::total           60                       (Unspecified)
system.caches.L2Cache_Controller.MCT_I.Ack_all |          89     17.76%     17.76% |          58     11.58%     29.34% |          62     12.38%     41.72% |          48      9.58%     51.30% |          61     12.18%     63.47% |          63     12.57%     76.05% |          67     13.37%     89.42% |          53     10.58%    100.00% (Unspecified)
system.caches.L2Cache_Controller.MCT_I.Ack_all::total          501                       (Unspecified)
system.caches.L2Cache_Controller.I_I.Ack |         755     12.01%     12.01% |         800     12.73%     24.74% |         774     12.32%     37.06% |         719     11.44%     48.50% |         785     12.49%     60.99% |         944     15.02%     76.01% |         769     12.24%     88.24% |         739     11.76%    100.00% (Unspecified)
system.caches.L2Cache_Controller.I_I.Ack::total         6285                       (Unspecified)
system.caches.L2Cache_Controller.I_I.Ack_all |        1046     12.30%     12.30% |        1094     12.86%     25.16% |        1061     12.48%     37.64% |        1001     11.77%     49.41% |        1048     12.32%     61.73% |        1213     14.26%     75.99% |        1021     12.00%     88.00% |        1021     12.00%    100.00% (Unspecified)
system.caches.L2Cache_Controller.I_I.Ack_all::total         8505                       (Unspecified)
system.caches.L2Cache_Controller.S_I.Ack |        1976     12.42%     12.42% |        1935     12.17%     24.59% |        1967     12.37%     36.95% |        2001     12.58%     49.53% |        1996     12.55%     62.08% |        1983     12.47%     74.55% |        2004     12.60%     87.15% |        2044     12.85%    100.00% (Unspecified)
system.caches.L2Cache_Controller.S_I.Ack::total        15906                       (Unspecified)
system.caches.L2Cache_Controller.S_I.Ack_all |        1976     12.42%     12.42% |        1935     12.17%     24.59% |        1967     12.37%     36.95% |        2001     12.58%     49.53% |        1996     12.55%     62.08% |        1983     12.47%     74.55% |        2004     12.60%     87.15% |        2044     12.85%    100.00% (Unspecified)
system.caches.L2Cache_Controller.S_I.Ack_all::total        15906                       (Unspecified)
system.caches.L2Cache_Controller.ISS.L1_GETS |          27     23.28%     23.28% |          23     19.83%     43.10% |          20     17.24%     60.34% |          10      8.62%     68.97% |          10      8.62%     77.59% |           7      6.03%     83.62% |           9      7.76%     91.38% |          10      8.62%    100.00% (Unspecified)
system.caches.L2Cache_Controller.ISS.L1_GETS::total          116                       (Unspecified)
system.caches.L2Cache_Controller.ISS.Mem_Data |      161585     12.52%     12.52% |      161315     12.50%     25.02% |      160719     12.45%     37.47% |      160719     12.45%     49.92% |      161510     12.51%     62.43% |      161542     12.52%     74.95% |      161878     12.54%     87.49% |      161503     12.51%    100.00% (Unspecified)
system.caches.L2Cache_Controller.ISS.Mem_Data::total      1290771                       (Unspecified)
system.caches.L2Cache_Controller.IS.L1_GET_INSTR |         107     12.49%     12.49% |         127     14.82%     27.30% |          96     11.20%     38.51% |         106     12.37%     50.88% |         122     14.24%     65.11% |         116     13.54%     78.65% |          87     10.15%     88.80% |          96     11.20%    100.00% (Unspecified)
system.caches.L2Cache_Controller.IS.L1_GET_INSTR::total          857                       (Unspecified)
system.caches.L2Cache_Controller.IS.Mem_Data |         692     12.83%     12.83% |         723     13.40%     26.23% |         679     12.59%     38.81% |         662     12.27%     51.08% |         668     12.38%     63.47% |         681     12.62%     76.09% |         628     11.64%     87.73% |         662     12.27%    100.00% (Unspecified)
system.caches.L2Cache_Controller.IS.Mem_Data::total         5395                       (Unspecified)
system.caches.L2Cache_Controller.IM.L1_GETX |           1      9.09%      9.09% |           3     27.27%     36.36% |           1      9.09%     45.45% |           1      9.09%     54.55% |           1      9.09%     63.64% |           1      9.09%     72.73% |           2     18.18%     90.91% |           1      9.09%    100.00% (Unspecified)
system.caches.L2Cache_Controller.IM.L1_GETX::total           11                       (Unspecified)
system.caches.L2Cache_Controller.IM.Mem_Data |         334     12.92%     12.92% |         321     12.41%     25.33% |         307     11.87%     37.20% |         317     12.26%     49.46% |         313     12.10%     61.56% |         330     12.76%     74.32% |         328     12.68%     87.01% |         336     12.99%    100.00% (Unspecified)
system.caches.L2Cache_Controller.IM.Mem_Data::total         2586                       (Unspecified)
system.caches.L2Cache_Controller.SS_MB.L1_GETS |           2      0.55%      0.55% |           1      0.27%      0.82% |           0      0.00%      0.82% |           0      0.00%      0.82% |           4      1.10%      1.92% |           0      0.00%      1.92% |         357     98.08%    100.00% |           0      0.00%    100.00% (Unspecified)
system.caches.L2Cache_Controller.SS_MB.L1_GETS::total          364                       (Unspecified)
system.caches.L2Cache_Controller.SS_MB.L1_UPGRADE |           0      0.00%      0.00% |           0      0.00%      0.00% |           0      0.00%      0.00% |           0      0.00%      0.00% |           0      0.00%      0.00% |           1    100.00%    100.00% |           0      0.00%    100.00% |           0      0.00%    100.00% (Unspecified)
system.caches.L2Cache_Controller.SS_MB.L1_UPGRADE::total            1                       (Unspecified)
system.caches.L2Cache_Controller.SS_MB.Exclusive_Unblock |        5642     12.75%     12.75% |        5630     12.72%     25.48% |        5533     12.51%     37.98% |        5377     12.15%     50.13% |        5287     11.95%     62.08% |        5405     12.22%     74.30% |        6036     13.64%     87.94% |        5336     12.06%    100.00% (Unspecified)
system.caches.L2Cache_Controller.SS_MB.Exclusive_Unblock::total        44246                       (Unspecified)
system.caches.L2Cache_Controller.MT_MB.L1_GETS |           0      0.00%      0.00% |           0      0.00%      0.00% |           0      0.00%      0.00% |           0      0.00%      0.00% |           0      0.00%      0.00% |           0      0.00%      0.00% |           0      0.00%      0.00% |           3    100.00%    100.00% (Unspecified)
system.caches.L2Cache_Controller.MT_MB.L1_GETS::total            3                       (Unspecified)
system.caches.L2Cache_Controller.MT_MB.L1_GETX |           0      0.00%      0.00% |           0      0.00%      0.00% |           0      0.00%      0.00% |           0      0.00%      0.00% |           1    100.00%    100.00% |           0      0.00%    100.00% |           0      0.00%    100.00% |           0      0.00%    100.00% (Unspecified)
system.caches.L2Cache_Controller.MT_MB.L1_GETX::total            1                       (Unspecified)
system.caches.L2Cache_Controller.MT_MB.Exclusive_Unblock |      220766     12.54%     12.54% |      221106     12.56%     25.11% |      219044     12.45%     37.55% |      218566     12.42%     49.97% |      219718     12.48%     62.46% |      221082     12.56%     75.02% |      220377     12.52%     87.54% |      219230     12.46%    100.00% (Unspecified)
system.caches.L2Cache_Controller.MT_MB.Exclusive_Unblock::total      1759889                       (Unspecified)
system.caches.L2Cache_Controller.MT_IIB.WB_Data |        3408     12.68%     12.68% |        3275     12.19%     24.87% |        3198     11.90%     36.77% |        3183     11.85%     48.62% |        3247     12.08%     60.71% |        3322     12.36%     73.07% |        3944     14.68%     87.75% |        3292     12.25%    100.00% (Unspecified)
system.caches.L2Cache_Controller.MT_IIB.WB_Data::total        26869                       (Unspecified)
system.caches.L2Cache_Controller.MT_IIB.WB_Data_clean |        4784     12.60%     12.60% |        4866     12.81%     25.41% |        4880     12.85%     38.26% |        4728     12.45%     50.71% |        4595     12.10%     62.81% |        4804     12.65%     75.46% |        4682     12.33%     87.79% |        4637     12.21%    100.00% (Unspecified)
[...]
system.timingCpu0.exec_context.thread_0.statExecutedInstType::SimdFloatMultAcc            0      0.00%     82.57% # Class of executed instruction. (Count)
system.timingCpu0.exec_context.thread_0.statExecutedInstType::SimdFloatSqrt            0      0.00%     82.57% # Class of executed instruction. (Count)
system.timingCpu0.exec_context.thread_0.statExecutedInstType::SimdReduceAdd            0      0.00%     82.57% # Class of executed instruction. (Count)
system.timingCpu0.exec_context.thread_0.statExecutedInstType::SimdReduceAlu            0      0.00%     82.57% # Class of executed instruction. (Count)
system.timingCpu0.exec_context.thread_0.statExecutedInstType::SimdReduceCmp            0      0.00%     82.57% # Class of executed instruction. (Count)
system.timingCpu0.exec_context.thread_0.statExecutedInstType::SimdFloatReduceAdd            0      0.00%     82.57% # Class of executed instruction. (Count)
system.timingCpu0.exec_context.thread_0.statExecutedInstType::SimdFloatReduceCmp            0      0.00%     82.57% # Class of executed instruction. (Count)
system.timingCpu0.exec_context.thread_0.statExecutedInstType::SimdAes            0      0.00%     82.57% # Class of executed instruction. (Count)
system.timingCpu0.exec_context.thread_0.statExecutedInstType::SimdAesMix            0      0.00%     82.57% # Class of executed instruction. (Count)
system.timingCpu0.exec_context.thread_0.statExecutedInstType::SimdSha1Hash            0      0.00%     82.57% # Class of executed instruction. (Count)
system.timingCpu0.exec_context.thread_0.statExecutedInstType::SimdSha1Hash2            0      0.00%     82.57% # Class of executed instruction. (Count)
system.timingCpu0.exec_context.thread_0.statExecutedInstType::SimdSha256Hash            0      0.00%     82.57% # Class of executed instruction. (Count)
system.timingCpu0.exec_context.thread_0.statExecutedInstType::SimdSha256Hash2            0      0.00%     82.57% # Class of executed instruction. (Count)
system.timingCpu0.exec_context.thread_0.statExecutedInstType::SimdShaSigma2            0      0.00%     82.57% # Class of executed instruction. (Count)
system.timingCpu0.exec_context.thread_0.statExecutedInstType::SimdShaSigma3            0      0.00%     82.57% # Class of executed instruction. (Count)
system.timingCpu0.exec_context.thread_0.statExecutedInstType::SimdPredAlu            0      0.00%     82.57% # Class of executed instruction. (Count)
system.timingCpu0.exec_context.thread_0.statExecutedInstType::MemRead     16305322     16.37%     98.95% # Class of executed instruction. (Count)
system.timingCpu0.exec_context.thread_0.statExecutedInstType::MemWrite      1044064      1.05%    100.00% # Class of executed instruction. (Count)
system.timingCpu0.exec_context.thread_0.statExecutedInstType::FloatMemRead          699      0.00%    100.00% # Class of executed instruction. (Count)
system.timingCpu0.exec_context.thread_0.statExecutedInstType::FloatMemWrite         2579      0.00%    100.00% # Class of executed instruction. (Count)
system.timingCpu0.exec_context.thread_0.statExecutedInstType::IprAccess            0      0.00%    100.00% # Class of executed instruction. (Count)
system.timingCpu0.exec_context.thread_0.statExecutedInstType::InstPrefetch            0      0.00%    100.00% # Class of executed instruction. (Count)
system.timingCpu0.exec_context.thread_0.statExecutedInstType::total     99581871                       # Class of executed instruction. (Count)
system.timingCpu0.mmu.dtb.rdAccesses         16740495                       # TLB accesses on read requests (Count)
system.timingCpu0.mmu.dtb.wrAccesses          1047012                       # TLB accesses on write requests (Count)
system.timingCpu0.mmu.dtb.rdMisses             434473                       # TLB misses on read requests (Count)
system.timingCpu0.mmu.dtb.wrMisses                367                       # TLB misses on write requests (Count)
system.timingCpu0.mmu.dtb.walker.power_state.pwrStateResidencyTicks::UNDEFINED 159697774952001                       # Cumulative time (in ticks) in various power states (Tick)
system.timingCpu0.mmu.itb.rdAccesses                0                       # TLB accesses on read requests (Count)
system.timingCpu0.mmu.itb.wrAccesses         79212938                       # TLB accesses on write requests (Count)
system.timingCpu0.mmu.itb.rdMisses                  0                       # TLB misses on read requests (Count)
system.timingCpu0.mmu.itb.wrMisses                734                       # TLB misses on write requests (Count)
system.timingCpu0.mmu.itb.walker.power_state.pwrStateResidencyTicks::UNDEFINED 159697774952001                       # Cumulative time (in ticks) in various power states (Tick)
system.timingCpu0.power_state.pwrStateResidencyTicks::OFF 159697774952001                       # Cumulative time (in ticks) in various power states (Tick)
system.timingCpu0.thread_0.numInsts                 0                       # Number of Instructions committed (Count)
system.timingCpu0.thread_0.numOps                   0                       # Number of Ops committed (Count)
system.timingCpu0.thread_0.numMemRefs               0                       # Number of Memory References (Count)
system.timingCpu1.numCycles                 489985010                       # Number of cpu cycles simulated (Cycle)
system.timingCpu1.numWorkItemsStarted               0                       # Number of work items this cpu started (Count)
system.timingCpu1.numWorkItemsCompleted             0                       # Number of work items this cpu completed (Count)
system.timingCpu1.exec_context.thread_0.numInsts     63255679                       # Number of instructions committed (Count)
system.timingCpu1.exec_context.thread_0.numOps     99205790                       # Number of ops (including micro ops) committed (Count)
system.timingCpu1.exec_context.thread_0.numIntAluAccesses     98100936                       # Number of integer alu accesses (Count)
system.timingCpu1.exec_context.thread_0.numFpAluAccesses          944                       # Number of float alu accesses (Count)
system.timingCpu1.exec_context.thread_0.numVecAluAccesses            0                       # Number of vector alu accesses (Count)
system.timingCpu1.exec_context.thread_0.numCallsReturns        37452                       # Number of times a function call or return occured (Count)
system.timingCpu1.exec_context.thread_0.numCondCtrlInsts     10298177                       # Number of instructions that are conditional controls (Count)
system.timingCpu1.exec_context.thread_0.numIntInsts     98100936                       # Number of integer instructions (Count)
system.timingCpu1.exec_context.thread_0.numFpInsts          944                       # Number of float instructions (Count)
system.timingCpu1.exec_context.thread_0.numVecInsts            0                       # Number of vector instructions (Count)
system.timingCpu1.exec_context.thread_0.numIntRegReads    135725603                       # Number of times the integer registers were read (Count)
system.timingCpu1.exec_context.thread_0.numIntRegWrites     73714085                       # Number of times the integer registers were written (Count)
system.timingCpu1.exec_context.thread_0.numFpRegReads         1372                       # Number of times the floating registers were read (Count)
system.timingCpu1.exec_context.thread_0.numFpRegWrites          685                       # Number of times the floating registers were written (Count)
system.timingCpu1.exec_context.thread_0.numVecRegReads            0                       # Number of times the vector registers were read (Count)
system.timingCpu1.exec_context.thread_0.numVecRegWrites            0                       # Number of times the vector registers were written (Count)
system.timingCpu1.exec_context.thread_0.numVecPredRegReads            0                       # Number of times the predicate registers were read (Count)
system.timingCpu1.exec_context.thread_0.numVecPredRegWrites            0                       # Number of times the predicate registers were written (Count)
system.timingCpu1.exec_context.thread_0.numCCRegReads     76866797                       # Number of times the CC registers were read (Count)
system.timingCpu1.exec_context.thread_0.numCCRegWrites     43811003                       # Number of times the CC registers were written (Count)
system.timingCpu1.exec_context.thread_0.numMiscRegReads     41035492                       # Number of times the Misc registers were read (Count)
system.timingCpu1.exec_context.thread_0.numMiscRegWrites         6585                       # Number of times the Misc registers were written (Count)
system.timingCpu1.exec_context.thread_0.numMemRefs     17194005                       # Number of memory refs (Count)
system.timingCpu1.exec_context.thread_0.numLoadInsts     16250287                       # Number of load instructions (Count)
system.timingCpu1.exec_context.thread_0.numStoreInsts       943718                       # Number of store instructions (Count)
system.timingCpu1.exec_context.thread_0.numIdleCycles            0                       # Number of idle cycles (Cycle)
system.timingCpu1.exec_context.thread_0.numBusyCycles    489985010                       # Number of busy cycles (Cycle)
system.timingCpu1.exec_context.thread_0.notIdleFraction            1                       # Percentage of non-idle cycles (Ratio)
system.timingCpu1.exec_context.thread_0.idleFraction            0                       # Percentage of idle cycles (Ratio)
system.timingCpu1.exec_context.thread_0.numBranches     11922495                       # Number of branches fetched (Count)
system.timingCpu1.exec_context.thread_0.statExecutedInstType::No_OpClass         1053      0.00%      0.00% # Class of executed instruction. (Count)
system.timingCpu1.exec_context.thread_0.statExecutedInstType::IntAlu     82001395     82.66%     82.66% # Class of executed instruction. (Count)
system.timingCpu1.exec_context.thread_0.statExecutedInstType::IntMult         2919      0.00%     82.66% # Class of executed instruction. (Count)
system.timingCpu1.exec_context.thread_0.statExecutedInstType::IntDiv         5820      0.01%     82.67% # Class of executed instruction. (Count)
system.timingCpu1.exec_context.thread_0.statExecutedInstType::FloatAdd           33      0.00%     82.67% # Class of executed instruction. (Count)
system.timingCpu1.exec_context.thread_0.statExecutedInstType::FloatCmp            0      0.00%     82.67% # Class of executed instruction. (Count)
system.timingCpu1.exec_context.thread_0.statExecutedInstType::FloatCvt           48      0.00%     82.67% # Class of executed instruction. (Count)
system.timingCpu1.exec_context.thread_0.statExecutedInstType::FloatMult            0      0.00%     82.67% # Class of executed instruction. (Count)
system.timingCpu1.exec_context.thread_0.statExecutedInstType::FloatMultAcc            0      0.00%     82.67% # Class of executed instruction. (Count)
system.timingCpu1.exec_context.thread_0.statExecutedInstType::FloatDiv            0      0.00%     82.67% # Class of executed instruction. (Count)
system.timingCpu1.exec_context.thread_0.statExecutedInstType::FloatMisc            0      0.00%     82.67% # Class of executed instruction. (Count)
system.timingCpu1.exec_context.thread_0.statExecutedInstType::FloatSqrt            0      0.00%     82.67% # Class of executed instruction. (Count)
system.timingCpu1.exec_context.thread_0.statExecutedInstType::SimdAdd           20      0.00%     82.67% # Class of executed instruction. (Count)
system.timingCpu1.exec_context.thread_0.statExecutedInstType::SimdAddAcc            0      0.00%     82.67% # Class of executed instruction. (Count)
system.timingCpu1.exec_context.thread_0.statExecutedInstType::SimdAlu          186      0.00%     82.67% # Class of executed instruction. (Count)
system.timingCpu1.exec_context.thread_0.statExecutedInstType::SimdCmp            0      0.00%     82.67% # Class of executed instruction. (Count)
system.timingCpu1.exec_context.thread_0.statExecutedInstType::SimdCvt          124      0.00%     82.67% # Class of executed instruction. (Count)
system.timingCpu1.exec_context.thread_0.statExecutedInstType::SimdMisc          172      0.00%     82.67% # Class of executed instruction. (Count)
system.timingCpu1.exec_context.thread_0.statExecutedInstType::SimdMult            0      0.00%     82.67% # Class of executed instruction. (Count)
system.timingCpu1.exec_context.thread_0.statExecutedInstType::SimdMultAcc            0      0.00%     82.67% # Class of executed instruction. (Count)
system.timingCpu1.exec_context.thread_0.statExecutedInstType::SimdShift           16      0.00%     82.67% # Class of executed instruction. (Count)
system.timingCpu1.exec_context.thread_0.statExecutedInstType::SimdShiftAcc            0      0.00%     82.67% # Class of executed instruction. (Count)
system.timingCpu1.exec_context.thread_0.statExecutedInstType::SimdDiv            0      0.00%     82.67% # Class of executed instruction. (Count)
system.timingCpu1.exec_context.thread_0.statExecutedInstType::SimdSqrt            0      0.00%     82.67% # Class of executed instruction. (Count)
system.timingCpu1.exec_context.thread_0.statExecutedInstType::SimdFloatAdd            0      0.00%     82.67% # Class of executed instruction. (Count)
system.timingCpu1.exec_context.thread_0.statExecutedInstType::SimdFloatAlu            0      0.00%     82.67% # Class of executed instruction. (Count)
system.timingCpu1.exec_context.thread_0.statExecutedInstType::SimdFloatCmp            0      0.00%     82.67% # Class of executed instruction. (Count)
system.timingCpu1.exec_context.thread_0.statExecutedInstType::SimdFloatCvt            0      0.00%     82.67% # Class of executed instruction. (Count)
system.timingCpu1.exec_context.thread_0.statExecutedInstType::SimdFloatDiv            0      0.00%     82.67% # Class of executed instruction. (Count)
system.timingCpu1.exec_context.thread_0.statExecutedInstType::SimdFloatMisc            0      0.00%     82.67% # Class of executed instruction. (Count)
system.timingCpu1.exec_context.thread_0.statExecutedInstType::SimdFloatMult            0      0.00%     82.67% # Class of executed instruction. (Count)
system.timingCpu1.exec_context.thread_0.statExecutedInstType::SimdFloatMultAcc            0      0.00%     82.67% # Class of executed instruction. (Count)
system.timingCpu1.exec_context.thread_0.statExecutedInstType::SimdFloatSqrt            0      0.00%     82.67% # Class of executed instruction. (Count)
system.timingCpu1.exec_context.thread_0.statExecutedInstType::SimdReduceAdd            0      0.00%     82.67% # Class of executed instruction. (Count)
system.timingCpu1.exec_context.thread_0.statExecutedInstType::SimdReduceAlu            0      0.00%     82.67% # Class of executed instruction. (Count)
system.timingCpu1.exec_context.thread_0.statExecutedInstType::SimdReduceCmp            0      0.00%     82.67% # Class of executed instruction. (Count)
system.timingCpu1.exec_context.thread_0.statExecutedInstType::SimdFloatReduceAdd            0      0.00%     82.67% # Class of executed instruction. (Count)
system.timingCpu1.exec_context.thread_0.statExecutedInstType::SimdFloatReduceCmp            0      0.00%     82.67% # Class of executed instruction. (Count)
system.timingCpu1.exec_context.thread_0.statExecutedInstType::SimdAes            0      0.00%     82.67% # Class of executed instruction. (Count)
system.timingCpu1.exec_context.thread_0.statExecutedInstType::SimdAesMix            0      0.00%     82.67% # Class of executed instruction. (Count)
system.timingCpu1.exec_context.thread_0.statExecutedInstType::SimdSha1Hash            0      0.00%     82.67% # Class of executed instruction. (Count)
system.timingCpu1.exec_context.thread_0.statExecutedInstType::SimdSha1Hash2            0      0.00%     82.67% # Class of executed instruction. (Count)
system.timingCpu1.exec_context.thread_0.statExecutedInstType::SimdSha256Hash            0      0.00%     82.67% # Class of executed instruction. (Count)
system.timingCpu1.exec_context.thread_0.statExecutedInstType::SimdSha256Hash2            0      0.00%     82.67% # Class of executed instruction. (Count)
system.timingCpu1.exec_context.thread_0.statExecutedInstType::SimdShaSigma2            0      0.00%     82.67% # Class of executed instruction. (Count)
system.timingCpu1.exec_context.thread_0.statExecutedInstType::SimdShaSigma3            0      0.00%     82.67% # Class of executed instruction. (Count)
system.timingCpu1.exec_context.thread_0.statExecutedInstType::SimdPredAlu            0      0.00%     82.67% # Class of executed instruction. (Count)
system.timingCpu1.exec_context.thread_0.statExecutedInstType::MemRead     16250113     16.38%     99.05% # Class of executed instruction. (Count)
system.timingCpu1.exec_context.thread_0.statExecutedInstType::MemWrite       943588      0.95%    100.00% # Class of executed instruction. (Count)
system.timingCpu1.exec_context.thread_0.statExecutedInstType::FloatMemRead          174      0.00%    100.00% # Class of executed instruction. (Count)
system.timingCpu1.exec_context.thread_0.statExecutedInstType::FloatMemWrite          130      0.00%    100.00% # Class of executed instruction. (Count)
system.timingCpu1.exec_context.thread_0.statExecutedInstType::IprAccess            0      0.00%    100.00% # Class of executed instruction. (Count)
system.timingCpu1.exec_context.thread_0.statExecutedInstType::InstPrefetch            0      0.00%    100.00% # Class of executed instruction. (Count)
system.timingCpu1.exec_context.thread_0.statExecutedInstType::total     99205791                       # Class of executed instruction. (Count)
system.timingCpu1.mmu.dtb.rdAccesses         16685714                       # TLB accesses on read requests (Count)
system.timingCpu1.mmu.dtb.wrAccesses           943835                       # TLB accesses on write requests (Count)
system.timingCpu1.mmu.dtb.rdMisses             436337                       # TLB misses on read requests (Count)
system.timingCpu1.mmu.dtb.wrMisses                430                       # TLB misses on write requests (Count)
system.timingCpu1.mmu.dtb.walker.power_state.pwrStateResidencyTicks::UNDEFINED 159697774952001                       # Cumulative time (in ticks) in various power states (Tick)
system.timingCpu1.mmu.itb.rdAccesses                0                       # TLB accesses on read requests (Count)
system.timingCpu1.mmu.itb.wrAccesses         79200694                       # TLB accesses on write requests (Count)
system.timingCpu1.mmu.itb.rdMisses                  0                       # TLB misses on read requests (Count)
system.timingCpu1.mmu.itb.wrMisses                630                       # TLB misses on write requests (Count)
system.timingCpu1.mmu.itb.walker.power_state.pwrStateResidencyTicks::UNDEFINED 159697774952001                       # Cumulative time (in ticks) in various power states (Tick)
system.timingCpu1.power_state.pwrStateResidencyTicks::OFF 159697774952001                       # Cumulative time (in ticks) in various power states (Tick)
system.timingCpu1.thread_0.numInsts                 0                       # Number of Instructions committed (Count)
system.timingCpu1.thread_0.numOps                   0                       # Number of Ops committed (Count)
system.timingCpu1.thread_0.numMemRefs               0                       # Number of Memory References (Count)
system.workload.inst.arm                            0                       # number of arm instructions executed (Count)
system.workload.inst.quiesce                        0                       # number of quiesce instructions executed (Count)

---------- End Simulation Statistics   ----------
