
---------- Begin Simulation Statistics ----------
simSeconds                                          2                       # Number of seconds simulated (Second)
simTicks                                 2000000000000                       # Number of ticks simulated (Tick)
finalTick                                26551287177000                       # Number of ticks from beginning of simulation (restored from checkpoints and never reset) (Tick)
simFreq                                  1000000000000                       # The number of ticks per simulated second ((Tick/Second))
hostSeconds                                   5930.26                       # Real time elapsed on the host (Second)
hostTickRate                                337253376                       # The number of ticks simulated per host second (ticks/s) ((Tick/Second))
hostMemory                                    8134492                       # Number of bytes of host memory used (Byte)
simInsts                                  99273681829                       # Number of instructions simulated (Count)
simOps                                   100020660853                       # Number of ops (including micro ops) simulated (Count)
hostInstRate                                 16740192                       # Simulator instruction rate (inst/s) ((Count/Second))
hostOpRate                                   16866152                       # Simulator op (including micro ops) rate (op/s) ((Count/Second))
system.atomicCpu0.numCycles                         0                       # Number of cpu cycles simulated (Cycle)
system.atomicCpu0.numWorkItemsStarted               0                       # Number of work items this cpu started (Count)
system.atomicCpu0.numWorkItemsCompleted             0                       # Number of work items this cpu completed (Count)
system.atomicCpu0.exec_context.thread_0.numInsts            0                       # Number of instructions committed (Count)
system.atomicCpu0.exec_context.thread_0.numOps            0                       # Number of ops (including micro ops) committed (Count)
system.atomicCpu0.exec_context.thread_0.numIntAluAccesses            0                       # Number of integer alu accesses (Count)
system.atomicCpu0.exec_context.thread_0.numFpAluAccesses            0                       # Number of float alu accesses (Count)
system.atomicCpu0.exec_context.thread_0.numVecAluAccesses            0                       # Number of vector alu accesses (Count)
system.atomicCpu0.exec_context.thread_0.numCallsReturns            0                       # Number of times a function call or return occured (Count)
system.atomicCpu0.exec_context.thread_0.numCondCtrlInsts            0                       # Number of instructions that are conditional controls (Count)
system.atomicCpu0.exec_context.thread_0.numIntInsts            0                       # Number of integer instructions (Count)
system.atomicCpu0.exec_context.thread_0.numFpInsts            0                       # Number of float instructions (Count)
system.atomicCpu0.exec_context.thread_0.numVecInsts            0                       # Number of vector instructions (Count)
system.atomicCpu0.exec_context.thread_0.numIntRegReads            0                       # Number of times the integer registers were read (Count)
system.atomicCpu0.exec_context.thread_0.numIntRegWrites            0                       # Number of times the integer registers were written (Count)
system.atomicCpu0.exec_context.thread_0.numFpRegReads            0                       # Number of times the floating registers were read (Count)
system.atomicCpu0.exec_context.thread_0.numFpRegWrites            0                       # Number of times the floating registers were written (Count)
system.atomicCpu0.exec_context.thread_0.numVecRegReads            0                       # Number of times the vector registers were read (Count)
system.atomicCpu0.exec_context.thread_0.numVecRegWrites            0                       # Number of times the vector registers were written (Count)
system.atomicCpu0.exec_context.thread_0.numVecPredRegReads            0                       # Number of times the predicate registers were read (Count)
system.atomicCpu0.exec_context.thread_0.numVecPredRegWrites            0                       # Number of times the predicate registers were written (Count)
system.atomicCpu0.exec_context.thread_0.numMiscRegReads            0                       # Number of times the Misc registers were read (Count)
system.atomicCpu0.exec_context.thread_0.numMiscRegWrites            0                       # Number of times the Misc registers were written (Count)
system.atomicCpu0.exec_context.thread_0.numMemRefs            0                       # Number of memory refs (Count)
system.atomicCpu0.exec_context.thread_0.numLoadInsts            0                       # Number of load instructions (Count)
system.atomicCpu0.exec_context.thread_0.numStoreInsts            0                       # Number of store instructions (Count)
system.atomicCpu0.exec_context.thread_0.numIdleCycles            0                       # Number of idle cycles (Cycle)
system.atomicCpu0.exec_context.thread_0.numBusyCycles            0                       # Number of busy cycles (Cycle)
system.atomicCpu0.exec_context.thread_0.notIdleFraction            0                       # Percentage of non-idle cycles (Ratio)
system.atomicCpu0.exec_context.thread_0.idleFraction            1                       # Percentage of idle cycles (Ratio)
system.atomicCpu0.exec_context.thread_0.statExecutedInstType::No_OpClass            0                       # Class of executed instruction. (Count)
system.atomicCpu0.exec_context.thread_0.statExecutedInstType::IntAlu            0                       # Class of executed instruction. (Count)
system.atomicCpu0.exec_context.thread_0.statExecutedInstType::IntMult            0                       # Class of executed instruction. (Count)
system.atomicCpu0.exec_context.thread_0.statExecutedInstType::IntDiv            0                       # Class of executed instruction. (Count)
system.atomicCpu0.exec_context.thread_0.statExecutedInstType::FloatAdd            0                       # Class of executed instruction. (Count)
system.atomicCpu0.exec_context.thread_0.statExecutedInstType::FloatCmp            0                       # Class of executed instruction. (Count)
system.atomicCpu0.exec_context.thread_0.statExecutedInstType::FloatCvt            0                       # Class of executed instruction. (Count)
system.atomicCpu0.exec_context.thread_0.statExecutedInstType::FloatMult            0                       # Class of executed instruction. (Count)
system.atomicCpu0.exec_context.thread_0.statExecutedInstType::FloatMultAcc            0                       # Class of executed instruction. (Count)
system.atomicCpu0.exec_context.thread_0.statExecutedInstType::FloatDiv            0                       # Class of executed instruction. (Count)
system.atomicCpu0.exec_context.thread_0.statExecutedInstType::FloatMisc            0                       # Class of executed instruction. (Count)
system.atomicCpu0.exec_context.thread_0.statExecutedInstType::FloatSqrt            0                       # Class of executed instruction. (Count)
system.atomicCpu0.exec_context.thread_0.statExecutedInstType::SimdAdd            0                       # Class of executed instruction. (Count)
system.atomicCpu0.exec_context.thread_0.statExecutedInstType::SimdAddAcc            0                       # Class of executed instruction. (Count)
system.atomicCpu0.exec_context.thread_0.statExecutedInstType::SimdAlu            0                       # Class of executed instruction. (Count)
system.atomicCpu0.exec_context.thread_0.statExecutedInstType::SimdCmp            0                       # Class of executed instruction. (Count)
system.atomicCpu0.exec_context.thread_0.statExecutedInstType::SimdCvt            0                       # Class of executed instruction. (Count)
system.atomicCpu0.exec_context.thread_0.statExecutedInstType::SimdMisc            0                       # Class of executed instruction. (Count)
system.atomicCpu0.exec_context.thread_0.statExecutedInstType::SimdMult            0                       # Class of executed instruction. (Count)
system.atomicCpu0.exec_context.thread_0.statExecutedInstType::SimdMultAcc            0                       # Class of executed instruction. (Count)
system.atomicCpu0.exec_context.thread_0.statExecutedInstType::SimdShift            0                       # Class of executed instruction. (Count)
system.atomicCpu0.exec_context.thread_0.statExecutedInstType::SimdShiftAcc            0                       # Class of executed instruction. (Count)
system.atomicCpu0.exec_context.thread_0.statExecutedInstType::SimdDiv            0                       # Class of executed instruction. (Count)
system.atomicCpu0.exec_context.thread_0.statExecutedInstType::SimdSqrt            0                       # Class of executed instruction. (Count)
system.atomicCpu0.exec_context.thread_0.statExecutedInstType::SimdFloatAdd            0                       # Class of executed instruction. (Count)
system.atomicCpu0.exec_context.thread_0.statExecutedInstType::SimdFloatAlu            0                       # Class of executed instruction. (Count)
system.atomicCpu0.exec_context.thread_0.statExecutedInstType::SimdFloatCmp            0                       # Class of executed instruction. (Count)
system.atomicCpu0.exec_context.thread_0.statExecutedInstType::SimdFloatCvt            0                       # Class of executed instruction. (Count)
system.atomicCpu0.exec_context.thread_0.statExecutedInstType::SimdFloatDiv            0                       # Class of executed instruction. (Count)
system.atomicCpu0.exec_context.thread_0.statExecutedInstType::SimdFloatMisc            0                       # Class of executed instruction. (Count)
system.atomicCpu0.exec_context.thread_0.statExecutedInstType::SimdFloatMult            0                       # Class of executed instruction. (Count)
system.atomicCpu0.exec_context.thread_0.statExecutedInstType::SimdFloatMultAcc            0                       # Class of executed instruction. (Count)
system.atomicCpu0.exec_context.thread_0.statExecutedInstType::SimdFloatSqrt            0                       # Class of executed instruction. (Count)
system.atomicCpu0.exec_context.thread_0.statExecutedInstType::SimdReduceAdd            0                       # Class of executed instruction. (Count)
system.atomicCpu0.exec_context.thread_0.statExecutedInstType::SimdReduceAlu            0                       # Class of executed instruction. (Count)
system.atomicCpu0.exec_context.thread_0.statExecutedInstType::SimdReduceCmp            0                       # Class of executed instruction. (Count)
system.atomicCpu0.exec_context.thread_0.statExecutedInstType::SimdFloatReduceAdd            0                       # Class of executed instruction. (Count)
system.atomicCpu0.exec_context.thread_0.statExecutedInstType::SimdFloatReduceCmp            0                       # Class of executed instruction. (Count)
system.atomicCpu0.exec_context.thread_0.statExecutedInstType::SimdAes            0                       # Class of executed instruction. (Count)
system.atomicCpu0.exec_context.thread_0.statExecutedInstType::SimdAesMix            0                       # Class of executed instruction. (Count)
system.atomicCpu0.exec_context.thread_0.statExecutedInstType::SimdSha1Hash            0                       # Class of executed instruction. (Count)
system.atomicCpu0.exec_context.thread_0.statExecutedInstType::SimdSha1Hash2            0                       # Class of executed instruction. (Count)
system.atomicCpu0.exec_context.thread_0.statExecutedInstType::SimdSha256Hash            0                       # Class of executed instruction. (Count)
system.atomicCpu0.exec_context.thread_0.statExecutedInstType::SimdSha256Hash2            0                       # Class of executed instruction. (Count)
system.atomicCpu0.exec_context.thread_0.statExecutedInstType::SimdShaSigma2            0                       # Class of executed instruction. (Count)
system.atomicCpu0.exec_context.thread_0.statExecutedInstType::SimdShaSigma3            0                       # Class of executed instruction. (Count)
system.atomicCpu0.exec_context.thread_0.statExecutedInstType::SimdPredAlu            0                       # Class of executed instruction. (Count)
system.atomicCpu0.exec_context.thread_0.statExecutedInstType::MemRead            0                       # Class of executed instruction. (Count)
system.atomicCpu0.exec_context.thread_0.statExecutedInstType::MemWrite            0                       # Class of executed instruction. (Count)
system.atomicCpu0.exec_context.thread_0.statExecutedInstType::FloatMemRead            0                       # Class of executed instruction. (Count)
system.atomicCpu0.exec_context.thread_0.statExecutedInstType::FloatMemWrite            0                       # Class of executed instruction. (Count)
system.atomicCpu0.exec_context.thread_0.statExecutedInstType::IprAccess            0                       # Class of executed instruction. (Count)
system.atomicCpu0.exec_context.thread_0.statExecutedInstType::InstPrefetch            0                       # Class of executed instruction. (Count)
system.atomicCpu0.exec_context.thread_0.statExecutedInstType::total            0                       # Class of executed instruction. (Count)
system.atomicCpu0.mmu.dtb.rdAccesses                0                       # TLB accesses on read requests (Count)
system.atomicCpu0.mmu.dtb.wrAccesses                0                       # TLB accesses on write requests (Count)
system.atomicCpu0.mmu.dtb.rdMisses                  0                       # TLB misses on read requests (Count)
system.atomicCpu0.mmu.dtb.wrMisses                  0                       # TLB misses on write requests (Count)
system.atomicCpu0.mmu.dtb.walker.power_state.pwrStateResidencyTicks::UNDEFINED 26551287177000                       # Cumulative time (in ticks) in various power states (Tick)
system.atomicCpu0.mmu.itb.rdAccesses                0                       # TLB accesses on read requests (Count)
system.atomicCpu0.mmu.itb.wrAccesses                0                       # TLB accesses on write requests (Count)
system.atomicCpu0.mmu.itb.rdMisses                  0                       # TLB misses on read requests (Count)
system.atomicCpu0.mmu.itb.wrMisses                  0                       # TLB misses on write requests (Count)
system.atomicCpu0.mmu.itb.walker.power_state.pwrStateResidencyTicks::UNDEFINED 26551287177000                       # Cumulative time (in ticks) in various power states (Tick)
system.atomicCpu0.power_state.pwrStateResidencyTicks::OFF 26551287177000                       # Cumulative time (in ticks) in various power states (Tick)
system.atomicCpu0.thread_0.numInsts                 0                       # Number of Instructions committed (Count)
system.atomicCpu0.thread_0.numOps                   0                       # Number of Ops committed (Count)
system.atomicCpu0.thread_0.numMemRefs               0                       # Number of Memory References (Count)
system.atomicCpu1.numCycles                         0                       # Number of cpu cycles simulated (Cycle)
system.atomicCpu1.numWorkItemsStarted               0                       # Number of work items this cpu started (Count)
system.atomicCpu1.numWorkItemsCompleted             0                       # Number of work items this cpu completed (Count)
system.atomicCpu1.exec_context.thread_0.numInsts            0                       # Number of instructions committed (Count)
system.atomicCpu1.exec_context.thread_0.numOps            0                       # Number of ops (including micro ops) committed (Count)
system.atomicCpu1.exec_context.thread_0.numIntAluAccesses            0                       # Number of integer alu accesses (Count)
system.atomicCpu1.exec_context.thread_0.numFpAluAccesses            0                       # Number of float alu accesses (Count)
system.atomicCpu1.exec_context.thread_0.numVecAluAccesses            0                       # Number of vector alu accesses (Count)
system.atomicCpu1.exec_context.thread_0.numCallsReturns            0                       # Number of times a function call or return occured (Count)
system.atomicCpu1.exec_context.thread_0.numCondCtrlInsts            0                       # Number of instructions that are conditional controls (Count)
system.atomicCpu1.exec_context.thread_0.numIntInsts            0                       # Number of integer instructions (Count)
system.atomicCpu1.exec_context.thread_0.numFpInsts            0                       # Number of float instructions (Count)
system.atomicCpu1.exec_context.thread_0.numVecInsts            0                       # Number of vector instructions (Count)
system.atomicCpu1.exec_context.thread_0.numIntRegReads            0                       # Number of times the integer registers were read (Count)
system.atomicCpu1.exec_context.thread_0.numIntRegWrites            0                       # Number of times the integer registers were written (Count)
system.atomicCpu1.exec_context.thread_0.numFpRegReads            0                       # Number of times the floating registers were read (Count)
system.atomicCpu1.exec_context.thread_0.numFpRegWrites            0                       # Number of times the floating registers were written (Count)
system.atomicCpu1.exec_context.thread_0.numVecRegReads            0                       # Number of times the vector registers were read (Count)
system.atomicCpu1.exec_context.thread_0.numVecRegWrites            0                       # Number of times the vector registers were written (Count)
system.atomicCpu1.exec_context.thread_0.numVecPredRegReads            0                       # Number of times the predicate registers were read (Count)
system.atomicCpu1.exec_context.thread_0.numVecPredRegWrites            0                       # Number of times the predicate registers were written (Count)
system.atomicCpu1.exec_context.thread_0.numMiscRegReads            0                       # Number of times the Misc registers were read (Count)
system.atomicCpu1.exec_context.thread_0.numMiscRegWrites            0                       # Number of times the Misc registers were written (Count)
system.atomicCpu1.exec_context.thread_0.numMemRefs            0                       # Number of memory refs (Count)
system.atomicCpu1.exec_context.thread_0.numLoadInsts            0                       # Number of load instructions (Count)
system.atomicCpu1.exec_context.thread_0.numStoreInsts            0                       # Number of store instructions (Count)
system.atomicCpu1.exec_context.thread_0.numIdleCycles            0                       # Number of idle cycles (Cycle)
system.atomicCpu1.exec_context.thread_0.numBusyCycles            0                       # Number of busy cycles (Cycle)
system.atomicCpu1.exec_context.thread_0.notIdleFraction            0                       # Percentage of non-idle cycles (Ratio)
system.atomicCpu1.exec_context.thread_0.idleFraction            1                       # Percentage of idle cycles (Ratio)
system.atomicCpu1.exec_context.thread_0.statExecutedInstType::No_OpClass            0                       # Class of executed instruction. (Count)
system.atomicCpu1.exec_context.thread_0.statExecutedInstType::IntAlu            0                       # Class of executed instruction. (Count)
system.atomicCpu1.exec_context.thread_0.statExecutedInstType::IntMult            0                       # Class of executed instruction. (Count)
system.atomicCpu1.exec_context.thread_0.statExecutedInstType::IntDiv            0                       # Class of executed instruction. (Count)
system.atomicCpu1.exec_context.thread_0.statExecutedInstType::FloatAdd            0                       # Class of executed instruction. (Count)
system.atomicCpu1.exec_context.thread_0.statExecutedInstType::FloatCmp            0                       # Class of executed instruction. (Count)
system.atomicCpu1.exec_context.thread_0.statExecutedInstType::FloatCvt            0                       # Class of executed instruction. (Count)
system.atomicCpu1.exec_context.thread_0.statExecutedInstType::FloatMult            0                       # Class of executed instruction. (Count)
system.atomicCpu1.exec_context.thread_0.statExecutedInstType::FloatMultAcc            0                       # Class of executed instruction. (Count)
system.atomicCpu1.exec_context.thread_0.statExecutedInstType::FloatDiv            0                       # Class of executed instruction. (Count)
system.atomicCpu1.exec_context.thread_0.statExecutedInstType::FloatMisc            0                       # Class of executed instruction. (Count)
system.atomicCpu1.exec_context.thread_0.statExecutedInstType::FloatSqrt            0                       # Class of executed instruction. (Count)
system.atomicCpu1.exec_context.thread_0.statExecutedInstType::SimdAdd            0                       # Class of executed instruction. (Count)
system.atomicCpu1.exec_context.thread_0.statExecutedInstType::SimdAddAcc            0                       # Class of executed instruction. (Count)
system.atomicCpu1.exec_context.thread_0.statExecutedInstType::SimdAlu            0                       # Class of executed instruction. (Count)
system.atomicCpu1.exec_context.thread_0.statExecutedInstType::SimdCmp            0                       # Class of executed instruction. (Count)
system.atomicCpu1.exec_context.thread_0.statExecutedInstType::SimdCvt            0                       # Class of executed instruction. (Count)
system.atomicCpu1.exec_context.thread_0.statExecutedInstType::SimdMisc            0                       # Class of executed instruction. (Count)
system.atomicCpu1.exec_context.thread_0.statExecutedInstType::SimdMult            0                       # Class of executed instruction. (Count)
system.atomicCpu1.exec_context.thread_0.statExecutedInstType::SimdMultAcc            0                       # Class of executed instruction. (Count)
system.atomicCpu1.exec_context.thread_0.statExecutedInstType::SimdShift            0                       # Class of executed instruction. (Count)
system.atomicCpu1.exec_context.thread_0.statExecutedInstType::SimdShiftAcc            0                       # Class of executed instruction. (Count)
system.atomicCpu1.exec_context.thread_0.statExecutedInstType::SimdDiv            0                       # Class of executed instruction. (Count)
system.atomicCpu1.exec_context.thread_0.statExecutedInstType::SimdSqrt            0                       # Class of executed instruction. (Count)
system.atomicCpu1.exec_context.thread_0.statExecutedInstType::SimdFloatAdd            0                       # Class of executed instruction. (Count)
system.atomicCpu1.exec_context.thread_0.statExecutedInstType::SimdFloatAlu            0                       # Class of executed instruction. (Count)
system.atomicCpu1.exec_context.thread_0.statExecutedInstType::SimdFloatCmp            0                       # Class of executed instruction. (Count)
system.atomicCpu1.exec_context.thread_0.statExecutedInstType::SimdFloatCvt            0                       # Class of executed instruction. (Count)
system.atomicCpu1.exec_context.thread_0.statExecutedInstType::SimdFloatDiv            0                       # Class of executed instruction. (Count)
system.atomicCpu1.exec_context.thread_0.statExecutedInstType::SimdFloatMisc            0                       # Class of executed instruction. (Count)
system.atomicCpu1.exec_context.thread_0.statExecutedInstType::SimdFloatMult            0                       # Class of executed instruction. (Count)
system.atomicCpu1.exec_context.thread_0.statExecutedInstType::SimdFloatMultAcc            0                       # Class of executed instruction. (Count)
system.atomicCpu1.exec_context.thread_0.statExecutedInstType::SimdFloatSqrt            0                       # Class of executed instruction. (Count)
system.atomicCpu1.exec_context.thread_0.statExecutedInstType::SimdReduceAdd            0                       # Class of executed instruction. (Count)
system.atomicCpu1.exec_context.thread_0.statExecutedInstType::SimdReduceAlu            0                       # Class of executed instruction. (Count)
system.atomicCpu1.exec_context.thread_0.statExecutedInstType::SimdReduceCmp            0                       # Class of executed instruction. (Count)
system.atomicCpu1.exec_context.thread_0.statExecutedInstType::SimdFloatReduceAdd            0                       # Class of executed instruction. (Count)
system.atomicCpu1.exec_context.thread_0.statExecutedInstType::SimdFloatReduceCmp            0                       # Class of executed instruction. (Count)
system.atomicCpu1.exec_context.thread_0.statExecutedInstType::SimdAes            0                       # Class of executed instruction. (Count)
system.atomicCpu1.exec_context.thread_0.statExecutedInstType::SimdAesMix            0                       # Class of executed instruction. (Count)
system.atomicCpu1.exec_context.thread_0.statExecutedInstType::SimdSha1Hash            0                       # Class of executed instruction. (Count)
system.atomicCpu1.exec_context.thread_0.statExecutedInstType::SimdSha1Hash2            0                       # Class of executed instruction. (Count)
system.atomicCpu1.exec_context.thread_0.statExecutedInstType::SimdSha256Hash            0                       # Class of executed instruction. (Count)
system.atomicCpu1.exec_context.thread_0.statExecutedInstType::SimdSha256Hash2            0                       # Class of executed instruction. (Count)
system.atomicCpu1.exec_context.thread_0.statExecutedInstType::SimdShaSigma2            0                       # Class of executed instruction. (Count)
system.atomicCpu1.exec_context.thread_0.statExecutedInstType::SimdShaSigma3            0                       # Class of executed instruction. (Count)
system.atomicCpu1.exec_context.thread_0.statExecutedInstType::SimdPredAlu            0                       # Class of executed instruction. (Count)
system.atomicCpu1.exec_context.thread_0.statExecutedInstType::MemRead            0                       # Class of executed instruction. (Count)
system.atomicCpu1.exec_context.thread_0.statExecutedInstType::MemWrite            0                       # Class of executed instruction. (Count)
system.atomicCpu1.exec_context.thread_0.statExecutedInstType::FloatMemRead            0                       # Class of executed instruction. (Count)
system.atomicCpu1.exec_context.thread_0.statExecutedInstType::FloatMemWrite            0                       # Class of executed instruction. (Count)
system.atomicCpu1.exec_context.thread_0.statExecutedInstType::IprAccess            0                       # Class of executed instruction. (Count)
system.atomicCpu1.exec_context.thread_0.statExecutedInstType::InstPrefetch            0                       # Class of executed instruction. (Count)
system.atomicCpu1.exec_context.thread_0.statExecutedInstType::total            0                       # Class of executed instruction. (Count)
system.atomicCpu1.mmu.dtb.rdAccesses                0                       # TLB accesses on read requests (Count)
system.atomicCpu1.mmu.dtb.wrAccesses                0                       # TLB accesses on write requests (Count)
system.atomicCpu1.mmu.dtb.rdMisses                  0                       # TLB misses on read requests (Count)
system.atomicCpu1.mmu.dtb.wrMisses                  0                       # TLB misses on write requests (Count)
system.atomicCpu1.mmu.dtb.walker.power_state.pwrStateResidencyTicks::UNDEFINED 26551287177000                       # Cumulative time (in ticks) in various power states (Tick)
system.atomicCpu1.mmu.itb.rdAccesses                0                       # TLB accesses on read requests (Count)
system.atomicCpu1.mmu.itb.wrAccesses                0                       # TLB accesses on write requests (Count)
system.atomicCpu1.mmu.itb.rdMisses                  0                       # TLB misses on read requests (Count)
system.atomicCpu1.mmu.itb.wrMisses                  0                       # TLB misses on write requests (Count)
system.atomicCpu1.mmu.itb.walker.power_state.pwrStateResidencyTicks::UNDEFINED 26551287177000                       # Cumulative time (in ticks) in various power states (Tick)
system.atomicCpu1.power_state.pwrStateResidencyTicks::OFF 26551287177000                       # Cumulative time (in ticks) in various power states (Tick)
system.atomicCpu1.thread_0.numInsts                 0                       # Number of Instructions committed (Count)
system.atomicCpu1.thread_0.numOps                   0                       # Number of Ops committed (Count)
system.atomicCpu1.thread_0.numMemRefs               0                       # Number of Memory References (Count)
system.caches.delayHistogram::bucket_size           64                       # delay histogram for all message (Unspecified)
system.caches.delayHistogram::max_bucket          639                       # delay histogram for all message (Unspecified)
system.caches.delayHistogram::samples       318952291                       # delay histogram for all message (Unspecified)
system.caches.delayHistogram::mean           0.012834                       # delay histogram for all message (Unspecified)
system.caches.delayHistogram::stdev          0.316673                       # delay histogram for all message (Unspecified)
system.caches.delayHistogram             |   318952288    100.00%    100.00% |           0      0.00%    100.00% |           0      0.00%    100.00% |           0      0.00%    100.00% |           0      0.00%    100.00% |           1      0.00%    100.00% |           0      0.00%    100.00% |           0      0.00%    100.00% |           2      0.00%    100.00% |           0      0.00%    100.00% # delay histogram for all message (Unspecified)
system.caches.delayHistogram::total         318952291                       # delay histogram for all message (Unspecified)
system.caches.m_outstandReqHistSeqr::bucket_size            1                       (Unspecified)
system.caches.m_outstandReqHistSeqr::max_bucket            9                       (Unspecified)
system.caches.m_outstandReqHistSeqr::samples   1614323858                       (Unspecified)
system.caches.m_outstandReqHistSeqr::mean     1.000000                       (Unspecified)
system.caches.m_outstandReqHistSeqr::gmean     1.000000                       (Unspecified)
system.caches.m_outstandReqHistSeqr::stdev     0.000114                       (Unspecified)
system.caches.m_outstandReqHistSeqr      |           0      0.00%      0.00% |  1614323837    100.00%    100.00% |          21      0.00%    100.00% |           0      0.00%    100.00% |           0      0.00%    100.00% |           0      0.00%    100.00% |           0      0.00%    100.00% |           0      0.00%    100.00% |           0      0.00%    100.00% |           0      0.00%    100.00% (Unspecified)
system.caches.m_outstandReqHistSeqr::total   1614323858                       (Unspecified)
system.caches.m_latencyHistSeqr::bucket_size          512                       (Unspecified)
system.caches.m_latencyHistSeqr::max_bucket         5119                       (Unspecified)
system.caches.m_latencyHistSeqr::samples   1614323856                       (Unspecified)
system.caches.m_latencyHistSeqr::mean        8.910141                       (Unspecified)
system.caches.m_latencyHistSeqr::gmean       1.237149                       (Unspecified)
system.caches.m_latencyHistSeqr::stdev      66.103439                       (Unspecified)
system.caches.m_latencyHistSeqr          |  1608156705     99.62%     99.62% |     5654610      0.35%     99.97% |       39072      0.00%     99.97% |      453435      0.03%    100.00% |       20020      0.00%    100.00% |          14      0.00%    100.00% |           0      0.00%    100.00% |           0      0.00%    100.00% |           0      0.00%    100.00% |           0      0.00%    100.00% (Unspecified)
system.caches.m_latencyHistSeqr::total     1614323856                       (Unspecified)
system.caches.m_hitLatencyHistSeqr::bucket_size            1                       (Unspecified)
system.caches.m_hitLatencyHistSeqr::max_bucket            9                       (Unspecified)
system.caches.m_hitLatencyHistSeqr::samples   1512848070                       (Unspecified)
system.caches.m_hitLatencyHistSeqr::mean            1                       (Unspecified)
system.caches.m_hitLatencyHistSeqr::gmean            1                       (Unspecified)
system.caches.m_hitLatencyHistSeqr       |           0      0.00%      0.00% |  1512848070    100.00%    100.00% |           0      0.00%    100.00% |           0      0.00%    100.00% |           0      0.00%    100.00% |           0      0.00%    100.00% |           0      0.00%    100.00% |           0      0.00%    100.00% |           0      0.00%    100.00% |           0      0.00%    100.00% (Unspecified)
system.caches.m_hitLatencyHistSeqr::total   1512848070                       (Unspecified)
system.caches.m_missLatencyHistSeqr::bucket_size          512                       (Unspecified)
system.caches.m_missLatencyHistSeqr::max_bucket         5119                       (Unspecified)
system.caches.m_missLatencyHistSeqr::samples    101475786                       (Unspecified)
system.caches.m_missLatencyHistSeqr::mean   126.838198                       (Unspecified)
system.caches.m_missLatencyHistSeqr::gmean    29.531919                       (Unspecified)
system.caches.m_missLatencyHistSeqr::stdev   233.826427                       (Unspecified)
system.caches.m_missLatencyHistSeqr      |    95308635     93.92%     93.92% |     5654610      5.57%     99.49% |       39072      0.04%     99.53% |      453435      0.45%     99.98% |       20020      0.02%    100.00% |          14      0.00%    100.00% |           0      0.00%    100.00% |           0      0.00%    100.00% |           0      0.00%    100.00% |           0      0.00%    100.00% (Unspecified)
system.caches.m_missLatencyHistSeqr::total    101475786                       (Unspecified)
system.caches.delayVCHist.vnet_0::bucket_size           64                       # delay histogram for vnet_0 (Unspecified)
system.caches.delayVCHist.vnet_0::max_bucket          639                       # delay histogram for vnet_0 (Unspecified)
system.caches.delayVCHist.vnet_0::samples    148359251                       # delay histogram for vnet_0 (Unspecified)
system.caches.delayVCHist.vnet_0::mean       0.027319                       # delay histogram for vnet_0 (Unspecified)
system.caches.delayVCHist.vnet_0::stdev      0.462646                       # delay histogram for vnet_0 (Unspecified)
system.caches.delayVCHist.vnet_0         |   148359248    100.00%    100.00% |           0      0.00%    100.00% |           0      0.00%    100.00% |           0      0.00%    100.00% |           0      0.00%    100.00% |           1      0.00%    100.00% |           0      0.00%    100.00% |           0      0.00%    100.00% |           2      0.00%    100.00% |           0      0.00%    100.00% # delay histogram for vnet_0 (Unspecified)
system.caches.delayVCHist.vnet_0::total     148359251                       # delay histogram for vnet_0 (Unspecified)
system.caches.delayVCHist.vnet_1::bucket_size            1                       # delay histogram for vnet_1 (Unspecified)
system.caches.delayVCHist.vnet_1::max_bucket            9                       # delay histogram for vnet_1 (Unspecified)
system.caches.delayVCHist.vnet_1::samples    170401383                       # delay histogram for vnet_1 (Unspecified)
system.caches.delayVCHist.vnet_1::mean       0.000237                       # delay histogram for vnet_1 (Unspecified)
system.caches.delayVCHist.vnet_1::stdev      0.031741                       # delay histogram for vnet_1 (Unspecified)
system.caches.delayVCHist.vnet_1         |   170390463     99.99%     99.99% |           0      0.00%     99.99% |        3773      0.00%    100.00% |           0      0.00%    100.00% |        5126      0.00%    100.00% |           0      0.00%    100.00% |        1956      0.00%    100.00% |           0      0.00%    100.00% |          65      0.00%    100.00% |           0      0.00%    100.00% # delay histogram for vnet_1 (Unspecified)
system.caches.delayVCHist.vnet_1::total     170401383                       # delay histogram for vnet_1 (Unspecified)
system.caches.delayVCHist.vnet_2::bucket_size            1                       # delay histogram for vnet_2 (Unspecified)
system.caches.delayVCHist.vnet_2::max_bucket            9                       # delay histogram for vnet_2 (Unspecified)
system.caches.delayVCHist.vnet_2::samples       191657                       # delay histogram for vnet_2 (Unspecified)
system.caches.delayVCHist.vnet_2::mean       0.000574                       # delay histogram for vnet_2 (Unspecified)
system.caches.delayVCHist.vnet_2::stdev      0.033876                       # delay histogram for vnet_2 (Unspecified)
system.caches.delayVCHist.vnet_2         |      191602     99.97%     99.97% |           0      0.00%     99.97% |          55      0.03%    100.00% |           0      0.00%    100.00% |           0      0.00%    100.00% |           0      0.00%    100.00% |           0      0.00%    100.00% |           0      0.00%    100.00% |           0      0.00%    100.00% |           0      0.00%    100.00% # delay histogram for vnet_2 (Unspecified)
system.caches.delayVCHist.vnet_2::total        191657                       # delay histogram for vnet_2 (Unspecified)
system.caches.L1Cache_Controller.Load    |   184285789     50.02%     50.02% |   184149491     49.98%    100.00% (Unspecified)
system.caches.L1Cache_Controller.Load::total    368435280                       (Unspecified)
system.caches.L1Cache_Controller.Ifetch  |   620605634     49.98%     49.98% |   621148577     50.02%    100.00% (Unspecified)
system.caches.L1Cache_Controller.Ifetch::total   1241754211                       (Unspecified)
system.caches.L1Cache_Controller.Store   |     2133501     51.60%     51.60% |     2000866     48.40%    100.00% (Unspecified)
system.caches.L1Cache_Controller.Store::total      4134367                       (Unspecified)
system.caches.L1Cache_Controller.Inv     |       44083     43.30%     43.30% |       57725     56.70%    100.00% (Unspecified)
system.caches.L1Cache_Controller.Inv::total       101808                       (Unspecified)
system.caches.L1Cache_Controller.L1_Replacement |    50723872     50.04%     50.04% |    50635792     49.96%    100.00% (Unspecified)
system.caches.L1Cache_Controller.L1_Replacement::total    101359664                       (Unspecified)
system.caches.L1Cache_Controller.Fwd_GETX |          18      2.33%      2.33% |         755     97.67%    100.00% (Unspecified)
system.caches.L1Cache_Controller.Fwd_GETX::total          773                       (Unspecified)
system.caches.L1Cache_Controller.Fwd_GETS |       51462     57.77%     57.77% |       37614     42.23%    100.00% (Unspecified)
system.caches.L1Cache_Controller.Fwd_GETS::total        89076                       (Unspecified)
system.caches.L1Cache_Controller.Data    |        4983     99.62%     99.62% |          19      0.38%    100.00% (Unspecified)
system.caches.L1Cache_Controller.Data::total         5002                       (Unspecified)
system.caches.L1Cache_Controller.Data_Exclusive |    11597066     50.02%     50.02% |    11586408     49.98%    100.00% (Unspecified)
system.caches.L1Cache_Controller.Data_Exclusive::total     23183474                       (Unspecified)
system.caches.L1Cache_Controller.DataS_fromL1 |       37614     42.23%     42.23% |       51462     57.77%    100.00% (Unspecified)
system.caches.L1Cache_Controller.DataS_fromL1::total        89076                       (Unspecified)
system.caches.L1Cache_Controller.Data_all_Acks |    39106417     50.05%     50.05% |    39027501     49.95%    100.00% (Unspecified)
system.caches.L1Cache_Controller.Data_all_Acks::total     78133918                       (Unspecified)
system.caches.L1Cache_Controller.Ack     |       36124     56.17%     56.17% |       28192     43.83%    100.00% (Unspecified)
system.caches.L1Cache_Controller.Ack::total        64316                       (Unspecified)
system.caches.L1Cache_Controller.Ack_all |       41107     59.30%     59.30% |       28211     40.70%    100.00% (Unspecified)
system.caches.L1Cache_Controller.Ack_all::total        69318                       (Unspecified)
system.caches.L1Cache_Controller.WB_Ack  |    11691558     50.07%     50.07% |    11659084     49.93%    100.00% (Unspecified)
system.caches.L1Cache_Controller.WB_Ack::total     23350642                       (Unspecified)
system.caches.L1Cache_Controller.NP.Load |    50566595     50.02%     50.02% |    50519987     49.98%    100.00% (Unspecified)
system.caches.L1Cache_Controller.NP.Load::total    101086582                       (Unspecified)
system.caches.L1Cache_Controller.NP.Ifetch |       54441     57.62%     57.62% |       40035     42.38%    100.00% (Unspecified)
system.caches.L1Cache_Controller.NP.Ifetch::total        94476                       (Unspecified)
system.caches.L1Cache_Controller.NP.Store |      111469     56.89%     56.89% |       84474     43.11%    100.00% (Unspecified)
system.caches.L1Cache_Controller.NP.Store::total       195943                       (Unspecified)
system.caches.L1Cache_Controller.NP.Inv  |       29742     46.35%     46.35% |       34421     53.65%    100.00% (Unspecified)
system.caches.L1Cache_Controller.NP.Inv::total        64163                       (Unspecified)
system.caches.L1Cache_Controller.I.Load  |          19      0.22%      0.22% |        8476     99.78%    100.00% (Unspecified)
system.caches.L1Cache_Controller.I.Load::total         8495                       (Unspecified)
system.caches.L1Cache_Controller.I.Ifetch |       13551     52.19%     52.19% |       12412     47.81%    100.00% (Unspecified)
system.caches.L1Cache_Controller.I.Ifetch::total        25963                       (Unspecified)
system.caches.L1Cache_Controller.I.Store |           6     60.00%     60.00% |           4     40.00%    100.00% (Unspecified)
system.caches.L1Cache_Controller.I.Store::total           10                       (Unspecified)
system.caches.L1Cache_Controller.I.L1_Replacement |         540     16.07%     16.07% |        2821     83.93%    100.00% (Unspecified)
system.caches.L1Cache_Controller.I.L1_Replacement::total         3361                       (Unspecified)
system.caches.L1Cache_Controller.S.Load  |    21864236     49.91%     49.91% |    21941928     50.09%    100.00% (Unspecified)
system.caches.L1Cache_Controller.S.Load::total     43806164                       (Unspecified)
system.caches.L1Cache_Controller.S.Ifetch |   620537642     49.98%     49.98% |   621096130     50.02%    100.00% (Unspecified)
system.caches.L1Cache_Controller.S.Ifetch::total   1241633772                       (Unspecified)
system.caches.L1Cache_Controller.S.Store |       36124     56.16%     56.16% |       28195     43.84%    100.00% (Unspecified)
system.caches.L1Cache_Controller.S.Store::total        64319                       (Unspecified)
system.caches.L1Cache_Controller.S.Inv   |       14335     38.10%     38.10% |       23294     61.90%    100.00% (Unspecified)
system.caches.L1Cache_Controller.S.Inv::total        37629                       (Unspecified)
system.caches.L1Cache_Controller.S.L1_Replacement |    39031774     50.04%     50.04% |    38973887     49.96%    100.00% (Unspecified)
system.caches.L1Cache_Controller.S.L1_Replacement::total     78005661                       (Unspecified)
system.caches.L1Cache_Controller.E.Load  |   110228710     50.01%     50.01% |   110180956     49.99%    100.00% (Unspecified)
system.caches.L1Cache_Controller.E.Load::total    220409666                       (Unspecified)
system.caches.L1Cache_Controller.E.Store |       86698     52.95%     52.95% |       77050     47.05%    100.00% (Unspecified)
system.caches.L1Cache_Controller.E.Store::total       163748                       (Unspecified)
system.caches.L1Cache_Controller.E.Inv   |           6     85.71%     85.71% |           1     14.29%    100.00% (Unspecified)
system.caches.L1Cache_Controller.E.Inv::total            7                       (Unspecified)
system.caches.L1Cache_Controller.E.L1_Replacement |    11472593     50.00%     50.00% |    11472540     50.00%    100.00% (Unspecified)
system.caches.L1Cache_Controller.E.L1_Replacement::total     22945133                       (Unspecified)
system.caches.L1Cache_Controller.E.Fwd_GETX |           2      0.27%      0.27% |         737     99.73%    100.00% (Unspecified)
system.caches.L1Cache_Controller.E.Fwd_GETX::total          739                       (Unspecified)
system.caches.L1Cache_Controller.E.Fwd_GETS |       36164     51.20%     51.20% |       34471     48.80%    100.00% (Unspecified)
system.caches.L1Cache_Controller.E.Fwd_GETS::total        70635                       (Unspecified)
system.caches.L1Cache_Controller.M.Load  |     1626229     52.05%     52.05% |     1498144     47.95%    100.00% (Unspecified)
system.caches.L1Cache_Controller.M.Load::total      3124373                       (Unspecified)
system.caches.L1Cache_Controller.M.Store |     1899204     51.19%     51.19% |     1811143     48.81%    100.00% (Unspecified)
system.caches.L1Cache_Controller.M.Store::total      3710347                       (Unspecified)
system.caches.L1Cache_Controller.M.L1_Replacement |      218965     54.00%     54.00% |      186544     46.00%    100.00% (Unspecified)
system.caches.L1Cache_Controller.M.L1_Replacement::total       405509                       (Unspecified)
system.caches.L1Cache_Controller.M.Fwd_GETX |          16     47.06%     47.06% |          18     52.94%    100.00% (Unspecified)
system.caches.L1Cache_Controller.M.Fwd_GETX::total           34                       (Unspecified)
system.caches.L1Cache_Controller.M.Fwd_GETS |       15298     82.96%     82.96% |        3142     17.04%    100.00% (Unspecified)
system.caches.L1Cache_Controller.M.Fwd_GETS::total        18440                       (Unspecified)
system.caches.L1Cache_Controller.IS.Inv  |           0      0.00%      0.00% |           6    100.00%    100.00% (Unspecified)
system.caches.L1Cache_Controller.IS.Inv::total            6                       (Unspecified)
system.caches.L1Cache_Controller.IS.Data_Exclusive |    11597066     50.02%     50.02% |    11586408     49.98%    100.00% (Unspecified)
system.caches.L1Cache_Controller.IS.Data_Exclusive::total     23183474                       (Unspecified)
system.caches.L1Cache_Controller.IS.DataS_fromL1 |       37614     42.23%     42.23% |       51456     57.77%    100.00% (Unspecified)
system.caches.L1Cache_Controller.IS.DataS_fromL1::total        89070                       (Unspecified)
system.caches.L1Cache_Controller.IS.Data_all_Acks |    38999925     50.04%     50.04% |    38943039     49.96%    100.00% (Unspecified)
system.caches.L1Cache_Controller.IS.Data_all_Acks::total     77942964                       (Unspecified)
system.caches.L1Cache_Controller.IM.Data |        4983     99.62%     99.62% |          19      0.38%    100.00% (Unspecified)
system.caches.L1Cache_Controller.IM.Data::total         5002                       (Unspecified)
system.caches.L1Cache_Controller.IM.Data_all_Acks |      106492     55.77%     55.77% |       84462     44.23%    100.00% (Unspecified)
system.caches.L1Cache_Controller.IM.Data_all_Acks::total       190954                       (Unspecified)
system.caches.L1Cache_Controller.SM.Inv  |           0      0.00%      0.00% |           3    100.00%    100.00% (Unspecified)
system.caches.L1Cache_Controller.SM.Inv::total            3                       (Unspecified)
system.caches.L1Cache_Controller.SM.Ack  |       36124     56.17%     56.17% |       28192     43.83%    100.00% (Unspecified)
system.caches.L1Cache_Controller.SM.Ack::total        64316                       (Unspecified)
system.caches.L1Cache_Controller.SM.Ack_all |       41107     59.30%     59.30% |       28211     40.70%    100.00% (Unspecified)
system.caches.L1Cache_Controller.SM.Ack_all::total        69318                       (Unspecified)
system.caches.L1Cache_Controller.IS_I.DataS_fromL1 |           0      0.00%      0.00% |           6    100.00%    100.00% (Unspecified)
system.caches.L1Cache_Controller.IS_I.DataS_fromL1::total            6                       (Unspecified)
system.caches.L1Cache_Controller.M_I.Fwd_GETS |           0      0.00%      0.00% |           1    100.00%    100.00% (Unspecified)
system.caches.L1Cache_Controller.M_I.Fwd_GETS::total            1                       (Unspecified)
system.caches.L1Cache_Controller.M_I.WB_Ack |    11691558     50.07%     50.07% |    11659083     49.93%    100.00% (Unspecified)
system.caches.L1Cache_Controller.M_I.WB_Ack::total     23350641                       (Unspecified)
system.caches.L1Cache_Controller.SINK_WB_ACK.WB_Ack |           0      0.00%      0.00% |           1    100.00%    100.00% (Unspecified)
system.caches.L1Cache_Controller.SINK_WB_ACK.WB_Ack::total            1                       (Unspecified)
system.caches.Directory_Controller.Fetch     22757572      0.00%      0.00% (Unspecified)
system.caches.Directory_Controller.Data        175177      0.00%      0.00% (Unspecified)
system.caches.Directory_Controller.Memory_Data     22757571      0.00%      0.00% (Unspecified)
system.caches.Directory_Controller.Memory_Ack       175177      0.00%      0.00% (Unspecified)
system.caches.Directory_Controller.CleanReplacement     22451323      0.00%      0.00% (Unspecified)
system.caches.Directory_Controller.I.Fetch     22757572      0.00%      0.00% (Unspecified)
system.caches.Directory_Controller.M.Data       175177      0.00%      0.00% (Unspecified)
system.caches.Directory_Controller.M.CleanReplacement     22451323      0.00%      0.00% (Unspecified)
system.caches.Directory_Controller.IM.Memory_Data     22757571      0.00%      0.00% (Unspecified)
system.caches.Directory_Controller.MI.Memory_Ack       175177      0.00%      0.00% (Unspecified)
system.caches.L2Cache_Controller.L1_GET_INSTR |        4869      4.04%      4.04% |       19770     16.41%     20.46% |       17378     14.43%     34.89% |        5731      4.76%     39.64% |       11729      9.74%     49.38% |       17213     14.29%     63.68% |       22318     18.53%     82.21% |       21431     17.79%    100.00% (Unspecified)
system.caches.L2Cache_Controller.L1_GET_INSTR::total       120439                       (Unspecified)
system.caches.L2Cache_Controller.L1_GETS |    12684456     12.55%     12.55% |    12672718     12.53%     25.08% |    12628118     12.49%     37.57% |    12618477     12.48%     50.05% |    12645045     12.51%     62.56% |    12632652     12.50%     75.06% |    12599491     12.46%     87.52% |    12619036     12.48%    100.00% (Unspecified)
system.caches.L2Cache_Controller.L1_GETS::total    101099993                       (Unspecified)
system.caches.L2Cache_Controller.L1_GETX |       36040     18.39%     18.39% |       19981     10.20%     28.59% |       14050      7.17%     35.76% |       19951     10.18%     45.94% |       18001      9.19%     55.13% |       37958     19.37%     74.50% |       23988     12.24%     86.74% |       25990     13.26%    100.00% (Unspecified)
system.caches.L2Cache_Controller.L1_GETX::total       195959                       (Unspecified)
system.caches.L2Cache_Controller.L1_UPGRADE |        7083     10.36%     10.36% |        8744     12.79%     23.14% |        7041     10.30%     33.44% |        7049     10.31%     43.75% |        7031     10.28%     54.03% |        7033     10.28%     64.32% |       17324     25.33%     89.65% |        7077     10.35%    100.00% (Unspecified)
system.caches.L2Cache_Controller.L1_UPGRADE::total        68382                       (Unspecified)
system.caches.L2Cache_Controller.L1_PUTX |     2928846     12.54%     12.54% |     2931385     12.55%     25.10% |     2905620     12.44%     37.54% |     2909026     12.46%     50.00% |     2909799     12.46%     62.46% |     2931987     12.56%     75.02% |     2914505     12.48%     87.50% |     2919475     12.50%    100.00% (Unspecified)
system.caches.L2Cache_Controller.L1_PUTX::total     23350643                       (Unspecified)
system.caches.L2Cache_Controller.L2_Replacement |       21953     12.53%     12.53% |       21846     12.47%     25.00% |       21951     12.53%     37.53% |       21918     12.51%     50.05% |       21861     12.48%     62.52% |       21908     12.51%     75.03% |       21884     12.49%     87.52% |       21856     12.48%    100.00% (Unspecified)
system.caches.L2Cache_Controller.L2_Replacement::total       175177                       (Unspecified)
system.caches.L2Cache_Controller.L2_Replacement_clean |     2806168     12.50%     12.50% |     2806714     12.50%     25.00% |     2806380     12.50%     37.50% |     2806408     12.50%     50.00% |     2806432     12.50%     62.50% |     2806245     12.50%     75.00% |     2806535     12.50%     87.50% |     2806441     12.50%    100.00% (Unspecified)
system.caches.L2Cache_Controller.L2_Replacement_clean::total     22451323                       (Unspecified)
system.caches.L2Cache_Controller.Mem_Data |     2844504     12.50%     12.50% |     2844944     12.50%     25.00% |     2844715     12.50%     37.50% |     2844710     12.50%     50.00% |     2844677     12.50%     62.50% |     2844537     12.50%     75.00% |     2844803     12.50%     87.50% |     2844681     12.50%    100.00% (Unspecified)
system.caches.L2Cache_Controller.Mem_Data::total     22757571                       (Unspecified)
system.caches.L2Cache_Controller.Mem_Ack |     2828121     12.50%     12.50% |     2828560     12.50%     25.00% |     2828331     12.50%     37.50% |     2828326     12.50%     50.00% |     2828293     12.50%     62.50% |     2828153     12.50%     75.00% |     2828419     12.50%     87.50% |     2828297     12.50%    100.00% (Unspecified)
system.caches.L2Cache_Controller.Mem_Ack::total     22626500                       (Unspecified)
system.caches.L2Cache_Controller.WB_Data |        3760     20.39%     20.39% |        1781      9.66%     30.05% |         733      3.98%     34.02% |         743      4.03%     38.05% |         823      4.46%     42.52% |         787      4.27%     46.78% |        9001     48.81%     95.60% |         812      4.40%    100.00% (Unspecified)
system.caches.L2Cache_Controller.WB_Data::total        18440                       (Unspecified)
system.caches.L2Cache_Controller.WB_Data_clean |        8797     12.45%     12.45% |        9427     13.35%     25.80% |        8771     12.42%     38.22% |        8772     12.42%     50.64% |        8688     12.30%     62.94% |        8720     12.34%     75.28% |        8735     12.37%     87.65% |        8726     12.35%    100.00% (Unspecified)
system.caches.L2Cache_Controller.WB_Data_clean::total        70636                       (Unspecified)
system.caches.L2Cache_Controller.Ack     |        1541     10.95%     10.95% |        1886     13.40%     24.35% |        1743     12.39%     36.74% |        1865     13.25%     49.99% |        1694     12.04%     62.03% |        1596     11.34%     73.37% |        2077     14.76%     88.13% |        1670     11.87%    100.00% (Unspecified)
system.caches.L2Cache_Controller.Ack::total        14072                       (Unspecified)
system.caches.L2Cache_Controller.Ack_all |        1942     10.54%     10.54% |        2520     13.68%     24.23% |        2216     12.03%     36.26% |        2378     12.91%     49.17% |        2371     12.87%     62.04% |        2190     11.89%     73.93% |        2507     13.61%     87.54% |        2294     12.46%    100.00% (Unspecified)
system.caches.L2Cache_Controller.Ack_all::total        18418                       (Unspecified)
system.caches.L2Cache_Controller.Unblock |       12557     14.10%     14.10% |       11208     12.58%     26.68% |        9504     10.67%     37.35% |        9515     10.68%     48.03% |        9511     10.68%     58.71% |        9507     10.67%     69.38% |       17736     19.91%     89.29% |        9538     10.71%    100.00% (Unspecified)
system.caches.L2Cache_Controller.Unblock::total        89076                       (Unspecified)
system.caches.L2Cache_Controller.Exclusive_Unblock |     2942548     12.55%     12.55% |     2943019     12.55%     25.11% |     2915536     12.44%     37.54% |     2918956     12.45%     49.99% |     2919714     12.45%     62.45% |     2941891     12.55%     75.00% |     2932661     12.51%     87.50% |     2929421     12.50%    100.00% (Unspecified)
system.caches.L2Cache_Controller.Exclusive_Unblock::total     23443746                       (Unspecified)
system.caches.L2Cache_Controller.NP.L1_GET_INSTR |        1811     10.28%     10.28% |        2429     13.79%     24.07% |        2122     12.05%     36.12% |        2275     12.92%     49.03% |        2289     12.99%     62.03% |        2085     11.84%     73.86% |        2390     13.57%     87.43% |        2214     12.57%    100.00% (Unspecified)
system.caches.L2Cache_Controller.NP.L1_GET_INSTR::total        17615                       (Unspecified)
system.caches.L2Cache_Controller.NP.L1_GETS |     2834861     12.50%     12.50% |     2834767     12.50%     25.00% |     2834782     12.50%     37.50% |     2834681     12.50%     50.00% |     2834625     12.50%     62.50% |     2834693     12.50%     75.00% |     2834627     12.50%     87.50% |     2834679     12.50%    100.00% (Unspecified)
system.caches.L2Cache_Controller.NP.L1_GETS::total     22677715                       (Unspecified)
system.caches.L2Cache_Controller.NP.L1_GETX |        7833     12.58%     12.58% |        7748     12.45%     25.03% |        7811     12.55%     37.58% |        7754     12.46%     50.04% |        7763     12.47%     62.51% |        7759     12.47%     74.98% |        7786     12.51%     87.49% |        7788     12.51%    100.00% (Unspecified)
system.caches.L2Cache_Controller.NP.L1_GETX::total        62242                       (Unspecified)
system.caches.L2Cache_Controller.SS.L1_GET_INSTR |        2372      2.43%      2.43% |       16590     16.99%     19.41% |       14710     15.06%     34.48% |        2777      2.84%     37.32% |        8859      9.07%     46.39% |       14489     14.83%     61.22% |       19251     19.71%     80.93% |       18621     19.07%    100.00% (Unspecified)
system.caches.L2Cache_Controller.SS.L1_GET_INSTR::total        97669                       (Unspecified)
system.caches.L2Cache_Controller.SS.L1_GETS |     9772432     12.56%     12.56% |     9747182     12.52%     25.08% |     9724143     12.50%     37.58% |     9716990     12.49%     50.06% |     9740835     12.52%     62.58% |     9726221     12.50%     75.08% |     9681420     12.44%     87.52% |     9713126     12.48%    100.00% (Unspecified)
system.caches.L2Cache_Controller.SS.L1_GETS::total     77822349                       (Unspecified)
system.caches.L2Cache_Controller.SS.L1_GETX |        2974     59.46%     59.46% |           0      0.00%     59.46% |           1      0.02%     59.48% |           0      0.00%     59.48% |          30      0.60%     60.08% |           3      0.06%     60.14% |        1991     39.80%     99.94% |           3      0.06%    100.00% (Unspecified)
system.caches.L2Cache_Controller.SS.L1_GETX::total         5002                       (Unspecified)
system.caches.L2Cache_Controller.SS.L1_UPGRADE |        7081     11.01%     11.01% |        8744     13.60%     24.61% |        7041     10.95%     35.55% |        7049     10.96%     46.51% |        7031     10.93%     57.44% |        7032     10.93%     68.38% |       13261     20.62%     89.00% |        7077     11.00%    100.00% (Unspecified)
system.caches.L2Cache_Controller.SS.L1_UPGRADE::total        64316                       (Unspecified)
system.caches.L2Cache_Controller.SS.L1_PUTX |           0      0.00%      0.00% |           0      0.00%      0.00% |           0      0.00%      0.00% |           0      0.00%      0.00% |           0      0.00%      0.00% |           1    100.00%    100.00% |           0      0.00%    100.00% |           0      0.00%    100.00% (Unspecified)
system.caches.L2Cache_Controller.SS.L1_PUTX::total            1                       (Unspecified)
system.caches.L2Cache_Controller.SS.L2_Replacement |         107     13.79%     13.79% |          87     11.21%     25.00% |          85     10.95%     35.95% |         104     13.40%     49.36% |          92     11.86%     61.21% |         105     13.53%     74.74% |         108     13.92%     88.66% |          88     11.34%    100.00% (Unspecified)
system.caches.L2Cache_Controller.SS.L2_Replacement::total          776                       (Unspecified)
system.caches.L2Cache_Controller.SS.L2_Replacement_clean |        1832     10.39%     10.39% |        2432     13.79%     24.18% |        2131     12.08%     36.26% |        2274     12.89%     49.16% |        2278     12.92%     62.08% |        2085     11.82%     73.90% |        2397     13.59%     87.49% |        2206     12.51%    100.00% (Unspecified)
system.caches.L2Cache_Controller.SS.L2_Replacement_clean::total        17635                       (Unspecified)
system.caches.L2Cache_Controller.M.L1_GETS |       64586     12.77%     12.77% |       79544     15.72%     28.49% |       59676     11.80%     40.29% |       57283     11.32%     51.61% |       60066     11.87%     63.49% |       62219     12.30%     75.79% |       60793     12.02%     87.81% |       61681     12.19%    100.00% (Unspecified)
system.caches.L2Cache_Controller.M.L1_GETS::total       505848                       (Unspecified)
system.caches.L2Cache_Controller.M.L1_GETX |       24488     19.14%     19.14% |       12222      9.55%     28.69% |        6237      4.87%     33.57% |       12197      9.53%     43.10% |       10205      7.98%     51.08% |       30193     23.60%     74.68% |       14201     11.10%     85.78% |       18196     14.22%    100.00% (Unspecified)
system.caches.L2Cache_Controller.M.L1_GETX::total       127939                       (Unspecified)
system.caches.L2Cache_Controller.M.L2_Replacement |       21846     12.53%     12.53% |       21759     12.48%     25.00% |       21866     12.54%     37.54% |       21814     12.51%     50.05% |       21769     12.48%     62.53% |       21803     12.50%     75.03% |       21776     12.49%     87.52% |       21768     12.48%    100.00% (Unspecified)
system.caches.L2Cache_Controller.M.L2_Replacement::total       174401                       (Unspecified)
system.caches.L2Cache_Controller.M.L2_Replacement_clean |     2804333     12.50%     12.50% |     2804281     12.50%     25.00% |     2804249     12.50%     37.50% |     2804134     12.50%     50.00% |     2804153     12.50%     62.50% |     2804160     12.50%     75.00% |     2804136     12.50%     87.50% |     2804235     12.50%    100.00% (Unspecified)
system.caches.L2Cache_Controller.M.L2_Replacement_clean::total     22433681                       (Unspecified)
system.caches.L2Cache_Controller.MT.L1_GETS |       12557     14.10%     14.10% |       11208     12.58%     26.68% |        9504     10.67%     37.35% |        9515     10.68%     48.03% |        9511     10.68%     58.71% |        9507     10.67%     69.38% |       17736     19.91%     89.29% |        9538     10.71%    100.00% (Unspecified)
system.caches.L2Cache_Controller.MT.L1_GETS::total        89076                       (Unspecified)
system.caches.L2Cache_Controller.MT.L1_GETX |         745     96.38%     96.38% |           9      1.16%     97.54% |           1      0.13%     97.67% |           0      0.00%     97.67% |           2      0.26%     97.93% |           3      0.39%     98.32% |          10      1.29%     99.61% |           3      0.39%    100.00% (Unspecified)
system.caches.L2Cache_Controller.MT.L1_GETX::total          773                       (Unspecified)
system.caches.L2Cache_Controller.MT.L1_PUTX |     2928846     12.54%     12.54% |     2931385     12.55%     25.10% |     2905620     12.44%     37.54% |     2909026     12.46%     50.00% |     2909799     12.46%     62.46% |     2931985     12.56%     75.02% |     2914505     12.48%     87.50% |     2919475     12.50%    100.00% (Unspecified)
system.caches.L2Cache_Controller.MT.L1_PUTX::total     23350641                       (Unspecified)
system.caches.L2Cache_Controller.MT.L2_Replacement_clean |           3     42.86%     42.86% |           1     14.29%     57.14% |           0      0.00%     57.14% |           0      0.00%     57.14% |           1     14.29%     71.43% |           0      0.00%     71.43% |           2     28.57%    100.00% |           0      0.00%    100.00% (Unspecified)
system.caches.L2Cache_Controller.MT.L2_Replacement_clean::total            7                       (Unspecified)
system.caches.L2Cache_Controller.M_I.Mem_Ack |     2828121     12.50%     12.50% |     2828560     12.50%     25.00% |     2828331     12.50%     37.50% |     2828326     12.50%     50.00% |     2828293     12.50%     62.50% |     2828153     12.50%     75.00% |     2828419     12.50%     87.50% |     2828297     12.50%    100.00% (Unspecified)
system.caches.L2Cache_Controller.M_I.Mem_Ack::total     22626500                       (Unspecified)
system.caches.L2Cache_Controller.MCT_I.Ack_all |           3     42.86%     42.86% |           1     14.29%     57.14% |           0      0.00%     57.14% |           0      0.00%     57.14% |           1     14.29%     71.43% |           0      0.00%     71.43% |           2     28.57%    100.00% |           0      0.00%    100.00% (Unspecified)
system.caches.L2Cache_Controller.MCT_I.Ack_all::total            7                       (Unspecified)
system.caches.L2Cache_Controller.I_I.Ack |        1434     10.79%     10.79% |        1799     13.53%     24.32% |        1658     12.47%     36.79% |        1761     13.24%     50.03% |        1602     12.05%     62.08% |        1491     11.21%     73.29% |        1969     14.81%     88.10% |        1582     11.90%    100.00% (Unspecified)
system.caches.L2Cache_Controller.I_I.Ack::total        13296                       (Unspecified)
system.caches.L2Cache_Controller.I_I.Ack_all |        1832     10.39%     10.39% |        2432     13.79%     24.18% |        2131     12.08%     36.26% |        2274     12.89%     49.16% |        2278     12.92%     62.08% |        2085     11.82%     73.90% |        2397     13.59%     87.49% |        2206     12.51%    100.00% (Unspecified)
system.caches.L2Cache_Controller.I_I.Ack_all::total        17635                       (Unspecified)
system.caches.L2Cache_Controller.S_I.Ack |         107     13.79%     13.79% |          87     11.21%     25.00% |          85     10.95%     35.95% |         104     13.40%     49.36% |          92     11.86%     61.21% |         105     13.53%     74.74% |         108     13.92%     88.66% |          88     11.34%    100.00% (Unspecified)
system.caches.L2Cache_Controller.S_I.Ack::total          776                       (Unspecified)
system.caches.L2Cache_Controller.S_I.Ack_all |         107     13.79%     13.79% |          87     11.21%     25.00% |          85     10.95%     35.95% |         104     13.40%     49.36% |          92     11.86%     61.21% |         105     13.53%     74.74% |         108     13.92%     88.66% |          88     11.34%    100.00% (Unspecified)
system.caches.L2Cache_Controller.S_I.Ack_all::total          776                       (Unspecified)
system.caches.L2Cache_Controller.ISS.L1_GETS |          19     21.59%     21.59% |          15     17.05%     38.64% |          13     14.77%     53.41% |           8      9.09%     62.50% |           8      9.09%     71.59% |          11     12.50%     84.09% |           8      9.09%     93.18% |           6      6.82%    100.00% (Unspecified)
system.caches.L2Cache_Controller.ISS.L1_GETS::total           88                       (Unspecified)
system.caches.L2Cache_Controller.ISS.Mem_Data |     2834841     12.50%     12.50% |     2834752     12.50%     25.00% |     2834769     12.50%     37.50% |     2834673     12.50%     50.00% |     2834617     12.50%     62.50% |     2834682     12.50%     75.00% |     2834619     12.50%     87.50% |     2834673     12.50%    100.00% (Unspecified)
system.caches.L2Cache_Controller.ISS.Mem_Data::total     22677626                       (Unspecified)
system.caches.L2Cache_Controller.IS.L1_GET_INSTR |         686     13.31%     13.31% |         751     14.57%     27.88% |         546     10.59%     38.47% |         679     13.17%     51.64% |         581     11.27%     62.91% |         639     12.40%     75.31% |         677     13.13%     88.44% |         596     11.56%    100.00% (Unspecified)
system.caches.L2Cache_Controller.IS.L1_GET_INSTR::total         5155                       (Unspecified)
system.caches.L2Cache_Controller.IS.Mem_Data |        1830     10.34%     10.34% |        2444     13.81%     24.14% |        2135     12.06%     36.20% |        2283     12.90%     49.10% |        2297     12.98%     62.07% |        2096     11.84%     73.91% |        2398     13.55%     87.46% |        2220     12.54%    100.00% (Unspecified)
system.caches.L2Cache_Controller.IS.Mem_Data::total        17703                       (Unspecified)
system.caches.L2Cache_Controller.IM.L1_GETX |           0      0.00%      0.00% |           2     66.67%     66.67% |           0      0.00%     66.67% |           0      0.00%     66.67% |           1     33.33%    100.00% |           0      0.00%    100.00% |           0      0.00%    100.00% |           0      0.00%    100.00% (Unspecified)
system.caches.L2Cache_Controller.IM.L1_GETX::total            3                       (Unspecified)
system.caches.L2Cache_Controller.IM.Mem_Data |        7833     12.58%     12.58% |        7748     12.45%     25.03% |        7811     12.55%     37.58% |        7754     12.46%     50.04% |        7763     12.47%     62.51% |        7759     12.47%     74.98% |        7786     12.51%     87.49% |        7788     12.51%    100.00% (Unspecified)
system.caches.L2Cache_Controller.IM.Mem_Data::total        62242                       (Unspecified)
system.caches.L2Cache_Controller.SS_MB.L1_GETS |           1      0.02%      0.02% |           0      0.00%      0.02% |           0      0.00%      0.02% |           0      0.00%      0.02% |           0      0.00%      0.02% |           0      0.00%      0.02% |        4906     99.86%     99.88% |           6      0.12%    100.00% (Unspecified)
system.caches.L2Cache_Controller.SS_MB.L1_GETS::total         4913                       (Unspecified)
system.caches.L2Cache_Controller.SS_MB.L1_UPGRADE |           2     66.67%     66.67% |           0      0.00%     66.67% |           0      0.00%     66.67% |           0      0.00%     66.67% |           0      0.00%     66.67% |           1     33.33%    100.00% |           0      0.00%    100.00% |           0      0.00%    100.00% (Unspecified)
system.caches.L2Cache_Controller.SS_MB.L1_UPGRADE::total            3                       (Unspecified)
system.caches.L2Cache_Controller.SS_MB.Exclusive_Unblock |       10055     14.51%     14.51% |        8744     12.61%     27.12% |        7042     10.16%     37.28% |        7049     10.17%     47.45% |        7061     10.19%     57.63% |        7035     10.15%     67.78% |       15252     22.00%     89.79% |        7080     10.21%    100.00% (Unspecified)
system.caches.L2Cache_Controller.SS_MB.Exclusive_Unblock::total        69318                       (Unspecified)
system.caches.L2Cache_Controller.MT_MB.L1_GETS |           0      0.00%      0.00% |           2     50.00%     50.00% |           0      0.00%     50.00% |           0      0.00%     50.00% |           0      0.00%     50.00% |           1     25.00%     75.00% |           1     25.00%    100.00% |           0      0.00%    100.00% (Unspecified)
system.caches.L2Cache_Controller.MT_MB.L1_GETS::total            4                       (Unspecified)
system.caches.L2Cache_Controller.MT_MB.Exclusive_Unblock |     2932493     12.55%     12.55% |     2934275     12.55%     25.10% |     2908494     12.44%     37.54% |     2911907     12.46%     50.00% |     2912653     12.46%     62.46% |     2934856     12.56%     75.02% |     2917409     12.48%     87.50% |     2922341     12.50%    100.00% (Unspecified)
system.caches.L2Cache_Controller.MT_MB.Exclusive_Unblock::total     23374428                       (Unspecified)
system.caches.L2Cache_Controller.MT_IIB.L1_PUTX |           0      0.00%      0.00% |           0      0.00%      0.00% |           0      0.00%      0.00% |           0      0.00%      0.00% |           0      0.00%      0.00% |           1    100.00%    100.00% |           0      0.00%    100.00% |           0      0.00%    100.00% (Unspecified)
system.caches.L2Cache_Controller.MT_IIB.L1_PUTX::total            1                       (Unspecified)
system.caches.L2Cache_Controller.MT_IIB.WB_Data |        3760     20.39%     20.39% |        1781      9.66%     30.05% |         733      3.98%     34.02% |         743      4.03%     38.05% |         823      4.46%     42.52% |         787      4.27%     46.78% |        9001     48.81%     95.60% |         812      4.40%    100.00% (Unspecified)
system.caches.L2Cache_Controller.MT_IIB.WB_Data::total        18440                       (Unspecified)
system.caches.L2Cache_Controller.MT_IIB.WB_Data_clean |        8797     12.45%     12.45% |        9427     13.35%     25.80% |        8771     12.42%     38.22% |        8772     12.42%     50.64% |        8688     12.30%     62.94% |        8720     12.34%     75.28% |        8735     12.37%     87.65% |        8726     12.35%    100.00% (Unspecified)
system.caches.L2Cache_Controller.MT_IIB.WB_Data_clean::total        70636                       (Unspecified)
system.caches.L2Cache_Controller.MT_SB.L1_UPGRADE |           0      0.00%      0.00% |           0      0.00%      0.00% |           0      0.00%      0.00% |           0      0.00%      0.00% |           0      0.00%      0.00% |           0      0.00%      0.00% |        4063    100.00%    100.00% |           0      0.00%    100.00% (Unspecified)
system.caches.L2Cache_Controller.MT_SB.L1_UPGRADE::total         4063                       (Unspecified)
system.caches.L2Cache_Controller.MT_SB.Unblock |       12557     14.10%     14.10% |       11208     12.58%     26.68% |        9504     10.67%     37.35% |        9515     10.68%     48.03% |        9511     10.68%     58.71% |        9507     10.67%     69.38% |       17736     19.91%     89.29% |        9538     10.71%    100.00% (Unspecified)
system.caches.L2Cache_Controller.MT_SB.Unblock::total        89076                       (Unspecified)
system.caches.RequestType.LD.latency_hist_seqr::bucket_size          512                       (Unspecified)
system.caches.RequestType.LD.latency_hist_seqr::max_bucket         5119                       (Unspecified)
system.caches.RequestType.LD.latency_hist_seqr::samples    368435278                       (Unspecified)
system.caches.RequestType.LD.latency_hist_seqr::mean    35.527904                       (Unspecified)
system.caches.RequestType.LD.latency_hist_seqr::gmean     2.531694                       (Unspecified)
system.caches.RequestType.LD.latency_hist_seqr::stdev   134.733640                       (Unspecified)
system.caches.RequestType.LD.latency_hist_seqr |   362322353     98.34%     98.34% |     5602177      1.52%     99.86% |       38711      0.01%     99.87% |      452068      0.12%     99.99% |       19955      0.01%    100.00% |          14      0.00%    100.00% |           0      0.00%    100.00% |           0      0.00%    100.00% |           0      0.00%    100.00% |           0      0.00%    100.00% (Unspecified)
system.caches.RequestType.LD.latency_hist_seqr::total    368435278                       (Unspecified)
system.caches.RequestType.LD.hit_latency_hist_seqr::bucket_size            1                       (Unspecified)
system.caches.RequestType.LD.hit_latency_hist_seqr::max_bucket            9                       (Unspecified)
system.caches.RequestType.LD.hit_latency_hist_seqr::samples    267340203                       (Unspecified)
system.caches.RequestType.LD.hit_latency_hist_seqr::mean            1                       (Unspecified)
system.caches.RequestType.LD.hit_latency_hist_seqr::gmean            1                       (Unspecified)
system.caches.RequestType.LD.hit_latency_hist_seqr |           0      0.00%      0.00% |   267340203    100.00%    100.00% |           0      0.00%    100.00% |           0      0.00%    100.00% |           0      0.00%    100.00% |           0      0.00%    100.00% |           0      0.00%    100.00% |           0      0.00%    100.00% |           0      0.00%    100.00% |           0      0.00%    100.00% (Unspecified)
system.caches.RequestType.LD.hit_latency_hist_seqr::total    267340203                       (Unspecified)
system.caches.RequestType.LD.miss_latency_hist_seqr::bucket_size          512                       (Unspecified)
system.caches.RequestType.LD.miss_latency_hist_seqr::max_bucket         5119                       (Unspecified)
system.caches.RequestType.LD.miss_latency_hist_seqr::samples    101095075                       (Unspecified)
system.caches.RequestType.LD.miss_latency_hist_seqr::mean   126.834990                       (Unspecified)
system.caches.RequestType.LD.miss_latency_hist_seqr::gmean    29.526329                       (Unspecified)
system.caches.RequestType.LD.miss_latency_hist_seqr::stdev   233.812993                       (Unspecified)
system.caches.RequestType.LD.miss_latency_hist_seqr |    94982150     93.95%     93.95% |     5602177      5.54%     99.49% |       38711      0.04%     99.53% |      452068      0.45%     99.98% |       19955      0.02%    100.00% |          14      0.00%    100.00% |           0      0.00%    100.00% |           0      0.00%    100.00% |           0      0.00%    100.00% |           0      0.00%    100.00% (Unspecified)
system.caches.RequestType.LD.miss_latency_hist_seqr::total    101095075                       (Unspecified)
system.caches.RequestType.ST.latency_hist_seqr::bucket_size          256                       (Unspecified)
system.caches.RequestType.ST.latency_hist_seqr::max_bucket         2559                       (Unspecified)
system.caches.RequestType.ST.latency_hist_seqr::samples      3885656                       (Unspecified)
system.caches.RequestType.ST.latency_hist_seqr::mean    10.612834                       (Unspecified)
system.caches.RequestType.ST.latency_hist_seqr::gmean     1.210807                       (Unspecified)
system.caches.RequestType.ST.latency_hist_seqr::stdev    76.599831                       (Unspecified)
[...]
system.timingCpu0.exec_context.thread_0.statExecutedInstType::SimdFloatMultAcc            0      0.00%     77.00% # Class of executed instruction. (Count)
system.timingCpu0.exec_context.thread_0.statExecutedInstType::SimdFloatSqrt            0      0.00%     77.00% # Class of executed instruction. (Count)
system.timingCpu0.exec_context.thread_0.statExecutedInstType::SimdReduceAdd            0      0.00%     77.00% # Class of executed instruction. (Count)
system.timingCpu0.exec_context.thread_0.statExecutedInstType::SimdReduceAlu            0      0.00%     77.00% # Class of executed instruction. (Count)
system.timingCpu0.exec_context.thread_0.statExecutedInstType::SimdReduceCmp            0      0.00%     77.00% # Class of executed instruction. (Count)
system.timingCpu0.exec_context.thread_0.statExecutedInstType::SimdFloatReduceAdd            0      0.00%     77.00% # Class of executed instruction. (Count)
system.timingCpu0.exec_context.thread_0.statExecutedInstType::SimdFloatReduceCmp            0      0.00%     77.00% # Class of executed instruction. (Count)
system.timingCpu0.exec_context.thread_0.statExecutedInstType::SimdAes            0      0.00%     77.00% # Class of executed instruction. (Count)
system.timingCpu0.exec_context.thread_0.statExecutedInstType::SimdAesMix            0      0.00%     77.00% # Class of executed instruction. (Count)
system.timingCpu0.exec_context.thread_0.statExecutedInstType::SimdSha1Hash            0      0.00%     77.00% # Class of executed instruction. (Count)
system.timingCpu0.exec_context.thread_0.statExecutedInstType::SimdSha1Hash2            0      0.00%     77.00% # Class of executed instruction. (Count)
system.timingCpu0.exec_context.thread_0.statExecutedInstType::SimdSha256Hash            0      0.00%     77.00% # Class of executed instruction. (Count)
system.timingCpu0.exec_context.thread_0.statExecutedInstType::SimdSha256Hash2            0      0.00%     77.00% # Class of executed instruction. (Count)
system.timingCpu0.exec_context.thread_0.statExecutedInstType::SimdShaSigma2            0      0.00%     77.00% # Class of executed instruction. (Count)
system.timingCpu0.exec_context.thread_0.statExecutedInstType::SimdShaSigma3            0      0.00%     77.00% # Class of executed instruction. (Count)
system.timingCpu0.exec_context.thread_0.statExecutedInstType::SimdPredAlu            0      0.00%     77.00% # Class of executed instruction. (Count)
system.timingCpu0.exec_context.thread_0.statExecutedInstType::MemRead     62428965      7.71%     84.71% # Class of executed instruction. (Count)
system.timingCpu0.exec_context.thread_0.statExecutedInstType::MemWrite      1089834      0.13%     84.85% # Class of executed instruction. (Count)
system.timingCpu0.exec_context.thread_0.statExecutedInstType::FloatMemRead    121752341     15.04%     99.89% # Class of executed instruction. (Count)
system.timingCpu0.exec_context.thread_0.statExecutedInstType::FloatMemWrite       924126      0.11%    100.00% # Class of executed instruction. (Count)
system.timingCpu0.exec_context.thread_0.statExecutedInstType::IprAccess            0      0.00%    100.00% # Class of executed instruction. (Count)
system.timingCpu0.exec_context.thread_0.statExecutedInstType::InstPrefetch            0      0.00%    100.00% # Class of executed instruction. (Count)
system.timingCpu0.exec_context.thread_0.statExecutedInstType::total    809500668                       # Class of executed instruction. (Count)
system.timingCpu0.mmu.dtb.rdAccesses        184234742                       # TLB accesses on read requests (Count)
system.timingCpu0.mmu.dtb.wrAccesses          2018535                       # TLB accesses on write requests (Count)
system.timingCpu0.mmu.dtb.rdMisses              53435                       # TLB misses on read requests (Count)
system.timingCpu0.mmu.dtb.wrMisses               4579                       # TLB misses on write requests (Count)
system.timingCpu0.mmu.dtb.walker.power_state.pwrStateResidencyTicks::UNDEFINED 26551287177000                       # Cumulative time (in ticks) in various power states (Tick)
system.timingCpu0.mmu.itb.rdAccesses                0                       # TLB accesses on read requests (Count)
system.timingCpu0.mmu.itb.wrAccesses        620607696                       # TLB accesses on write requests (Count)
system.timingCpu0.mmu.itb.rdMisses                  0                       # TLB misses on read requests (Count)
system.timingCpu0.mmu.itb.wrMisses               2062                       # TLB misses on write requests (Count)
system.timingCpu0.mmu.itb.walker.power_state.pwrStateResidencyTicks::UNDEFINED 26551287177000                       # Cumulative time (in ticks) in various power states (Tick)
system.timingCpu0.power_state.pwrStateResidencyTicks::OFF 26551287177000                       # Cumulative time (in ticks) in various power states (Tick)
system.timingCpu0.thread_0.numInsts                 0                       # Number of Instructions committed (Count)
system.timingCpu0.thread_0.numOps                   0                       # Number of Ops committed (Count)
system.timingCpu0.thread_0.numMemRefs               0                       # Number of Memory References (Count)
system.timingCpu1.numCycles                7999999636                       # Number of cpu cycles simulated (Cycle)
system.timingCpu1.numWorkItemsStarted               0                       # Number of work items this cpu started (Count)
system.timingCpu1.numWorkItemsCompleted             0                       # Number of work items this cpu completed (Count)
system.timingCpu1.exec_context.thread_0.numInsts    435935758                       # Number of instructions committed (Count)
system.timingCpu1.exec_context.thread_0.numOps    808934872                       # Number of ops (including micro ops) committed (Count)
system.timingCpu1.exec_context.thread_0.numIntAluAccesses    624629920                       # Number of integer alu accesses (Count)
system.timingCpu1.exec_context.thread_0.numFpAluAccesses    306270799                       # Number of float alu accesses (Count)
system.timingCpu1.exec_context.thread_0.numVecAluAccesses            0                       # Number of vector alu accesses (Count)
system.timingCpu1.exec_context.thread_0.numCallsReturns       378689                       # Number of times a function call or return occured (Count)
system.timingCpu1.exec_context.thread_0.numCondCtrlInsts     62083398                       # Number of instructions that are conditional controls (Count)
system.timingCpu1.exec_context.thread_0.numIntInsts    624629920                       # Number of integer instructions (Count)
system.timingCpu1.exec_context.thread_0.numFpInsts    306270799                       # Number of float instructions (Count)
system.timingCpu1.exec_context.thread_0.numVecInsts            0                       # Number of vector instructions (Count)
system.timingCpu1.exec_context.thread_0.numIntRegReads    812904747                       # Number of times the integer registers were read (Count)
system.timingCpu1.exec_context.thread_0.numIntRegWrites    376485139                       # Number of times the integer registers were written (Count)
system.timingCpu1.exec_context.thread_0.numFpRegReads    368602359                       # Number of times the floating registers were read (Count)
system.timingCpu1.exec_context.thread_0.numFpRegWrites    305333485                       # Number of times the floating registers were written (Count)
system.timingCpu1.exec_context.thread_0.numVecRegReads            0                       # Number of times the vector registers were read (Count)
system.timingCpu1.exec_context.thread_0.numVecRegWrites            0                       # Number of times the vector registers were written (Count)
system.timingCpu1.exec_context.thread_0.numVecPredRegReads            0                       # Number of times the predicate registers were read (Count)
system.timingCpu1.exec_context.thread_0.numVecPredRegWrites            0                       # Number of times the predicate registers were written (Count)
system.timingCpu1.exec_context.thread_0.numCCRegReads    312865679                       # Number of times the CC registers were read (Count)
system.timingCpu1.exec_context.thread_0.numCCRegWrites    249878197                       # Number of times the CC registers were written (Count)
system.timingCpu1.exec_context.thread_0.numMiscRegReads    311295777                       # Number of times the Misc registers were read (Count)
system.timingCpu1.exec_context.thread_0.numMiscRegWrites        71731                       # Number of times the Misc registers were written (Count)
system.timingCpu1.exec_context.thread_0.numMemRefs    185922621                       # Number of memory refs (Count)
system.timingCpu1.exec_context.thread_0.numLoadInsts    184012221                       # Number of load instructions (Count)
system.timingCpu1.exec_context.thread_0.numStoreInsts      1910400                       # Number of store instructions (Count)
system.timingCpu1.exec_context.thread_0.numIdleCycles            0                       # Number of idle cycles (Cycle)
system.timingCpu1.exec_context.thread_0.numBusyCycles   7999999636                       # Number of busy cycles (Cycle)
system.timingCpu1.exec_context.thread_0.notIdleFraction            1                       # Percentage of non-idle cycles (Ratio)
system.timingCpu1.exec_context.thread_0.idleFraction            0                       # Percentage of idle cycles (Ratio)
system.timingCpu1.exec_context.thread_0.numBranches     62662304                       # Number of branches fetched (Count)
system.timingCpu1.exec_context.thread_0.statExecutedInstType::No_OpClass       266187      0.03%      0.03% # Class of executed instruction. (Count)
system.timingCpu1.exec_context.thread_0.statExecutedInstType::IntAlu    439009320     54.27%     54.30% # Class of executed instruction. (Count)
system.timingCpu1.exec_context.thread_0.statExecutedInstType::IntMult        47690      0.01%     54.31% # Class of executed instruction. (Count)
system.timingCpu1.exec_context.thread_0.statExecutedInstType::IntDiv        88604      0.01%     54.32% # Class of executed instruction. (Count)
system.timingCpu1.exec_context.thread_0.statExecutedInstType::FloatAdd     60863211      7.52%     61.84% # Class of executed instruction. (Count)
system.timingCpu1.exec_context.thread_0.statExecutedInstType::FloatCmp            0      0.00%     61.84% # Class of executed instruction. (Count)
system.timingCpu1.exec_context.thread_0.statExecutedInstType::FloatCvt           80      0.00%     61.84% # Class of executed instruction. (Count)
system.timingCpu1.exec_context.thread_0.statExecutedInstType::FloatMult            0      0.00%     61.84% # Class of executed instruction. (Count)
system.timingCpu1.exec_context.thread_0.statExecutedInstType::FloatMultAcc            0      0.00%     61.84% # Class of executed instruction. (Count)
system.timingCpu1.exec_context.thread_0.statExecutedInstType::FloatDiv            0      0.00%     61.84% # Class of executed instruction. (Count)
system.timingCpu1.exec_context.thread_0.statExecutedInstType::FloatMisc            0      0.00%     61.84% # Class of executed instruction. (Count)
system.timingCpu1.exec_context.thread_0.statExecutedInstType::FloatSqrt            0      0.00%     61.84% # Class of executed instruction. (Count)
system.timingCpu1.exec_context.thread_0.statExecutedInstType::SimdAdd            0      0.00%     61.84% # Class of executed instruction. (Count)
system.timingCpu1.exec_context.thread_0.statExecutedInstType::SimdAddAcc            0      0.00%     61.84% # Class of executed instruction. (Count)
system.timingCpu1.exec_context.thread_0.statExecutedInstType::SimdAlu       519296      0.06%     61.91% # Class of executed instruction. (Count)
system.timingCpu1.exec_context.thread_0.statExecutedInstType::SimdCmp         1132      0.00%     61.91% # Class of executed instruction. (Count)
system.timingCpu1.exec_context.thread_0.statExecutedInstType::SimdCvt        15470      0.00%     61.91% # Class of executed instruction. (Count)
system.timingCpu1.exec_context.thread_0.statExecutedInstType::SimdMisc        31327      0.00%     61.91% # Class of executed instruction. (Count)
system.timingCpu1.exec_context.thread_0.statExecutedInstType::SimdMult            0      0.00%     61.91% # Class of executed instruction. (Count)
system.timingCpu1.exec_context.thread_0.statExecutedInstType::SimdMultAcc            0      0.00%     61.91% # Class of executed instruction. (Count)
system.timingCpu1.exec_context.thread_0.statExecutedInstType::SimdShift            0      0.00%     61.91% # Class of executed instruction. (Count)
system.timingCpu1.exec_context.thread_0.statExecutedInstType::SimdShiftAcc            0      0.00%     61.91% # Class of executed instruction. (Count)
system.timingCpu1.exec_context.thread_0.statExecutedInstType::SimdDiv            0      0.00%     61.91% # Class of executed instruction. (Count)
system.timingCpu1.exec_context.thread_0.statExecutedInstType::SimdSqrt            0      0.00%     61.91% # Class of executed instruction. (Count)
system.timingCpu1.exec_context.thread_0.statExecutedInstType::SimdFloatAdd     61084993      7.55%     69.47% # Class of executed instruction. (Count)
system.timingCpu1.exec_context.thread_0.statExecutedInstType::SimdFloatAlu            0      0.00%     69.47% # Class of executed instruction. (Count)
system.timingCpu1.exec_context.thread_0.statExecutedInstType::SimdFloatCmp            0      0.00%     69.47% # Class of executed instruction. (Count)
system.timingCpu1.exec_context.thread_0.statExecutedInstType::SimdFloatCvt            0      0.00%     69.47% # Class of executed instruction. (Count)
system.timingCpu1.exec_context.thread_0.statExecutedInstType::SimdFloatDiv            6      0.00%     69.47% # Class of executed instruction. (Count)
system.timingCpu1.exec_context.thread_0.statExecutedInstType::SimdFloatMisc            0      0.00%     69.47% # Class of executed instruction. (Count)
system.timingCpu1.exec_context.thread_0.statExecutedInstType::SimdFloatMult     61084987      7.55%     77.02% # Class of executed instruction. (Count)
system.timingCpu1.exec_context.thread_0.statExecutedInstType::SimdFloatMultAcc            0      0.00%     77.02% # Class of executed instruction. (Count)
system.timingCpu1.exec_context.thread_0.statExecutedInstType::SimdFloatSqrt            0      0.00%     77.02% # Class of executed instruction. (Count)
system.timingCpu1.exec_context.thread_0.statExecutedInstType::SimdReduceAdd            0      0.00%     77.02% # Class of executed instruction. (Count)
system.timingCpu1.exec_context.thread_0.statExecutedInstType::SimdReduceAlu            0      0.00%     77.02% # Class of executed instruction. (Count)
system.timingCpu1.exec_context.thread_0.statExecutedInstType::SimdReduceCmp            0      0.00%     77.02% # Class of executed instruction. (Count)
system.timingCpu1.exec_context.thread_0.statExecutedInstType::SimdFloatReduceAdd            0      0.00%     77.02% # Class of executed instruction. (Count)
system.timingCpu1.exec_context.thread_0.statExecutedInstType::SimdFloatReduceCmp            0      0.00%     77.02% # Class of executed instruction. (Count)
system.timingCpu1.exec_context.thread_0.statExecutedInstType::SimdAes            0      0.00%     77.02% # Class of executed instruction. (Count)
system.timingCpu1.exec_context.thread_0.statExecutedInstType::SimdAesMix            0      0.00%     77.02% # Class of executed instruction. (Count)
system.timingCpu1.exec_context.thread_0.statExecutedInstType::SimdSha1Hash            0      0.00%     77.02% # Class of executed instruction. (Count)
system.timingCpu1.exec_context.thread_0.statExecutedInstType::SimdSha1Hash2            0      0.00%     77.02% # Class of executed instruction. (Count)
system.timingCpu1.exec_context.thread_0.statExecutedInstType::SimdSha256Hash            0      0.00%     77.02% # Class of executed instruction. (Count)
system.timingCpu1.exec_context.thread_0.statExecutedInstType::SimdSha256Hash2            0      0.00%     77.02% # Class of executed instruction. (Count)
system.timingCpu1.exec_context.thread_0.statExecutedInstType::SimdShaSigma2            0      0.00%     77.02% # Class of executed instruction. (Count)
system.timingCpu1.exec_context.thread_0.statExecutedInstType::SimdShaSigma3            0      0.00%     77.02% # Class of executed instruction. (Count)
system.timingCpu1.exec_context.thread_0.statExecutedInstType::SimdPredAlu            0      0.00%     77.02% # Class of executed instruction. (Count)
system.timingCpu1.exec_context.thread_0.statExecutedInstType::MemRead     62279586      7.70%     84.72% # Class of executed instruction. (Count)
system.timingCpu1.exec_context.thread_0.statExecutedInstType::MemWrite       982240      0.12%     84.84% # Class of executed instruction. (Count)
system.timingCpu1.exec_context.thread_0.statExecutedInstType::FloatMemRead    121732635     15.05%     99.89% # Class of executed instruction. (Count)
system.timingCpu1.exec_context.thread_0.statExecutedInstType::FloatMemWrite       928160      0.11%    100.00% # Class of executed instruction. (Count)
system.timingCpu1.exec_context.thread_0.statExecutedInstType::IprAccess            0      0.00%    100.00% # Class of executed instruction. (Count)
system.timingCpu1.exec_context.thread_0.statExecutedInstType::InstPrefetch            0      0.00%    100.00% # Class of executed instruction. (Count)
system.timingCpu1.exec_context.thread_0.statExecutedInstType::total    808934924                       # Class of executed instruction. (Count)
system.timingCpu1.mmu.dtb.rdAccesses        184063064                       # TLB accesses on read requests (Count)
system.timingCpu1.mmu.dtb.wrAccesses          1917134                       # TLB accesses on write requests (Count)
system.timingCpu1.mmu.dtb.rdMisses              51166                       # TLB misses on read requests (Count)
system.timingCpu1.mmu.dtb.wrMisses               6851                       # TLB misses on write requests (Count)
system.timingCpu1.mmu.dtb.walker.power_state.pwrStateResidencyTicks::UNDEFINED 26551287177000                       # Cumulative time (in ticks) in various power states (Tick)
system.timingCpu1.mmu.itb.rdAccesses                0                       # TLB accesses on read requests (Count)
system.timingCpu1.mmu.itb.wrAccesses        621151840                       # TLB accesses on write requests (Count)
system.timingCpu1.mmu.itb.rdMisses                  0                       # TLB misses on read requests (Count)
system.timingCpu1.mmu.itb.wrMisses               3263                       # TLB misses on write requests (Count)
system.timingCpu1.mmu.itb.walker.power_state.pwrStateResidencyTicks::UNDEFINED 26551287177000                       # Cumulative time (in ticks) in various power states (Tick)
system.timingCpu1.power_state.pwrStateResidencyTicks::OFF 26551287177000                       # Cumulative time (in ticks) in various power states (Tick)
system.timingCpu1.thread_0.numInsts                 0                       # Number of Instructions committed (Count)
system.timingCpu1.thread_0.numOps                   0                       # Number of Ops committed (Count)
system.timingCpu1.thread_0.numMemRefs               0                       # Number of Memory References (Count)
system.workload.inst.arm                            0                       # number of arm instructions executed (Count)
system.workload.inst.quiesce                        0                       # number of quiesce instructions executed (Count)

---------- End Simulation Statistics   ----------
