
---------- Begin Simulation Statistics ----------
simSeconds                                          2                       # Number of seconds simulated (Second)
simTicks                                 2000000000000                       # Number of ticks simulated (Tick)
finalTick                                18925298861750                       # Number of ticks from beginning of simulation (restored from checkpoints and never reset) (Tick)
simFreq                                  1000000000000                       # The number of ticks per simulated second ((Tick/Second))
hostSeconds                                  15482.84                       # Real time elapsed on the host (Second)
hostTickRate                                129175303                       # The number of ticks simulated per host second (ticks/s) ((Tick/Second))
hostMemory                                    7218508                       # Number of bytes of host memory used (Byte)
simInsts                                   7522521199                       # Number of instructions simulated (Count)
simOps                                    11112573925                       # Number of ops (including micro ops) simulated (Count)
hostInstRate                                   485862                       # Simulator instruction rate (inst/s) ((Count/Second))
hostOpRate                                     717735                       # Simulator op (including micro ops) rate (op/s) ((Count/Second))
system.atomicCpu0.numCycles                         0                       # Number of cpu cycles simulated (Cycle)
system.atomicCpu0.numWorkItemsStarted               0                       # Number of work items this cpu started (Count)
system.atomicCpu0.numWorkItemsCompleted             0                       # Number of work items this cpu completed (Count)
system.atomicCpu0.exec_context.thread_0.numInsts            0                       # Number of instructions committed (Count)
system.atomicCpu0.exec_context.thread_0.numOps            0                       # Number of ops (including micro ops) committed (Count)
system.atomicCpu0.exec_context.thread_0.numIntAluAccesses            0                       # Number of integer alu accesses (Count)
system.atomicCpu0.exec_context.thread_0.numFpAluAccesses            0                       # Number of float alu accesses (Count)
system.atomicCpu0.exec_context.thread_0.numVecAluAccesses            0                       # Number of vector alu accesses (Count)
system.atomicCpu0.exec_context.thread_0.numCallsReturns            0                       # Number of times a function call or return occured (Count)
system.atomicCpu0.exec_context.thread_0.numCondCtrlInsts            0                       # Number of instructions that are conditional controls (Count)
system.atomicCpu0.exec_context.thread_0.numIntInsts            0                       # Number of integer instructions (Count)
system.atomicCpu0.exec_context.thread_0.numFpInsts            0                       # Number of float instructions (Count)
system.atomicCpu0.exec_context.thread_0.numVecInsts            0                       # Number of vector instructions (Count)
system.atomicCpu0.exec_context.thread_0.numIntRegReads            0                       # Number of times the integer registers were read (Count)
system.atomicCpu0.exec_context.thread_0.numIntRegWrites            0                       # Number of times the integer registers were written (Count)
system.atomicCpu0.exec_context.thread_0.numFpRegReads            0                       # Number of times the floating registers were read (Count)
system.atomicCpu0.exec_context.thread_0.numFpRegWrites            0                       # Number of times the floating registers were written (Count)
system.atomicCpu0.exec_context.thread_0.numVecRegReads            0                       # Number of times the vector registers were read (Count)
system.atomicCpu0.exec_context.thread_0.numVecRegWrites            0                       # Number of times the vector registers were written (Count)
system.atomicCpu0.exec_context.thread_0.numVecPredRegReads            0                       # Number of times the predicate registers were read (Count)
system.atomicCpu0.exec_context.thread_0.numVecPredRegWrites            0                       # Number of times the predicate registers were written (Count)
system.atomicCpu0.exec_context.thread_0.numMiscRegReads            0                       # Number of times the Misc registers were read (Count)
system.atomicCpu0.exec_context.thread_0.numMiscRegWrites            0                       # Number of times the Misc registers were written (Count)
system.atomicCpu0.exec_context.thread_0.numMemRefs            0                       # Number of memory refs (Count)
system.atomicCpu0.exec_context.thread_0.numLoadInsts            0                       # Number of load instructions (Count)
system.atomicCpu0.exec_context.thread_0.numStoreInsts            0                       # Number of store instructions (Count)
system.atomicCpu0.exec_context.thread_0.numIdleCycles            0                       # Number of idle cycles (Cycle)
system.atomicCpu0.exec_context.thread_0.numBusyCycles            0                       # Number of busy cycles (Cycle)
system.atomicCpu0.exec_context.thread_0.notIdleFraction            0                       # Percentage of non-idle cycles (Ratio)
system.atomicCpu0.exec_context.thread_0.idleFraction            1                       # Percentage of idle cycles (Ratio)
system.atomicCpu0.exec_context.thread_0.statExecutedInstType::No_OpClass            0                       # Class of executed instruction. (Count)
system.atomicCpu0.exec_context.thread_0.statExecutedInstType::IntAlu            0                       # Class of executed instruction. (Count)
system.atomicCpu0.exec_context.thread_0.statExecutedInstType::IntMult            0                       # Class of executed instruction. (Count)
system.atomicCpu0.exec_context.thread_0.statExecutedInstType::IntDiv            0                       # Class of executed instruction. (Count)
system.atomicCpu0.exec_context.thread_0.statExecutedInstType::FloatAdd            0                       # Class of executed instruction. (Count)
system.atomicCpu0.exec_context.thread_0.statExecutedInstType::FloatCmp            0                       # Class of executed instruction. (Count)
system.atomicCpu0.exec_context.thread_0.statExecutedInstType::FloatCvt            0                       # Class of executed instruction. (Count)
system.atomicCpu0.exec_context.thread_0.statExecutedInstType::FloatMult            0                       # Class of executed instruction. (Count)
system.atomicCpu0.exec_context.thread_0.statExecutedInstType::FloatMultAcc            0                       # Class of executed instruction. (Count)
system.atomicCpu0.exec_context.thread_0.statExecutedInstType::FloatDiv            0                       # Class of executed instruction. (Count)
system.atomicCpu0.exec_context.thread_0.statExecutedInstType::FloatMisc            0                       # Class of executed instruction. (Count)
system.atomicCpu0.exec_context.thread_0.statExecutedInstType::FloatSqrt            0                       # Class of executed instruction. (Count)
system.atomicCpu0.exec_context.thread_0.statExecutedInstType::SimdAdd            0                       # Class of executed instruction. (Count)
system.atomicCpu0.exec_context.thread_0.statExecutedInstType::SimdAddAcc            0                       # Class of executed instruction. (Count)
system.atomicCpu0.exec_context.thread_0.statExecutedInstType::SimdAlu            0                       # Class of executed instruction. (Count)
system.atomicCpu0.exec_context.thread_0.statExecutedInstType::SimdCmp            0                       # Class of executed instruction. (Count)
system.atomicCpu0.exec_context.thread_0.statExecutedInstType::SimdCvt            0                       # Class of executed instruction. (Count)
system.atomicCpu0.exec_context.thread_0.statExecutedInstType::SimdMisc            0                       # Class of executed instruction. (Count)
system.atomicCpu0.exec_context.thread_0.statExecutedInstType::SimdMult            0                       # Class of executed instruction. (Count)
system.atomicCpu0.exec_context.thread_0.statExecutedInstType::SimdMultAcc            0                       # Class of executed instruction. (Count)
system.atomicCpu0.exec_context.thread_0.statExecutedInstType::SimdShift            0                       # Class of executed instruction. (Count)
system.atomicCpu0.exec_context.thread_0.statExecutedInstType::SimdShiftAcc            0                       # Class of executed instruction. (Count)
system.atomicCpu0.exec_context.thread_0.statExecutedInstType::SimdDiv            0                       # Class of executed instruction. (Count)
system.atomicCpu0.exec_context.thread_0.statExecutedInstType::SimdSqrt            0                       # Class of executed instruction. (Count)
system.atomicCpu0.exec_context.thread_0.statExecutedInstType::SimdFloatAdd            0                       # Class of executed instruction. (Count)
system.atomicCpu0.exec_context.thread_0.statExecutedInstType::SimdFloatAlu            0                       # Class of executed instruction. (Count)
system.atomicCpu0.exec_context.thread_0.statExecutedInstType::SimdFloatCmp            0                       # Class of executed instruction. (Count)
system.atomicCpu0.exec_context.thread_0.statExecutedInstType::SimdFloatCvt            0                       # Class of executed instruction. (Count)
system.atomicCpu0.exec_context.thread_0.statExecutedInstType::SimdFloatDiv            0                       # Class of executed instruction. (Count)
system.atomicCpu0.exec_context.thread_0.statExecutedInstType::SimdFloatMisc            0                       # Class of executed instruction. (Count)
system.atomicCpu0.exec_context.thread_0.statExecutedInstType::SimdFloatMult            0                       # Class of executed instruction. (Count)
system.atomicCpu0.exec_context.thread_0.statExecutedInstType::SimdFloatMultAcc            0                       # Class of executed instruction. (Count)
system.atomicCpu0.exec_context.thread_0.statExecutedInstType::SimdFloatSqrt            0                       # Class of executed instruction. (Count)
system.atomicCpu0.exec_context.thread_0.statExecutedInstType::SimdReduceAdd            0                       # Class of executed instruction. (Count)
system.atomicCpu0.exec_context.thread_0.statExecutedInstType::SimdReduceAlu            0                       # Class of executed instruction. (Count)
system.atomicCpu0.exec_context.thread_0.statExecutedInstType::SimdReduceCmp            0                       # Class of executed instruction. (Count)
system.atomicCpu0.exec_context.thread_0.statExecutedInstType::SimdFloatReduceAdd            0                       # Class of executed instruction. (Count)
system.atomicCpu0.exec_context.thread_0.statExecutedInstType::SimdFloatReduceCmp            0                       # Class of executed instruction. (Count)
system.atomicCpu0.exec_context.thread_0.statExecutedInstType::SimdAes            0                       # Class of executed instruction. (Count)
system.atomicCpu0.exec_context.thread_0.statExecutedInstType::SimdAesMix            0                       # Class of executed instruction. (Count)
system.atomicCpu0.exec_context.thread_0.statExecutedInstType::SimdSha1Hash            0                       # Class of executed instruction. (Count)
system.atomicCpu0.exec_context.thread_0.statExecutedInstType::SimdSha1Hash2            0                       # Class of executed instruction. (Count)
system.atomicCpu0.exec_context.thread_0.statExecutedInstType::SimdSha256Hash            0                       # Class of executed instruction. (Count)
system.atomicCpu0.exec_context.thread_0.statExecutedInstType::SimdSha256Hash2            0                       # Class of executed instruction. (Count)
system.atomicCpu0.exec_context.thread_0.statExecutedInstType::SimdShaSigma2            0                       # Class of executed instruction. (Count)
system.atomicCpu0.exec_context.thread_0.statExecutedInstType::SimdShaSigma3            0                       # Class of executed instruction. (Count)
system.atomicCpu0.exec_context.thread_0.statExecutedInstType::SimdPredAlu            0                       # Class of executed instruction. (Count)
system.atomicCpu0.exec_context.thread_0.statExecutedInstType::MemRead            0                       # Class of executed instruction. (Count)
system.atomicCpu0.exec_context.thread_0.statExecutedInstType::MemWrite            0                       # Class of executed instruction. (Count)
system.atomicCpu0.exec_context.thread_0.statExecutedInstType::FloatMemRead            0                       # Class of executed instruction. (Count)
system.atomicCpu0.exec_context.thread_0.statExecutedInstType::FloatMemWrite            0                       # Class of executed instruction. (Count)
system.atomicCpu0.exec_context.thread_0.statExecutedInstType::IprAccess            0                       # Class of executed instruction. (Count)
system.atomicCpu0.exec_context.thread_0.statExecutedInstType::InstPrefetch            0                       # Class of executed instruction. (Count)
system.atomicCpu0.exec_context.thread_0.statExecutedInstType::total            0                       # Class of executed instruction. (Count)
system.atomicCpu0.mmu.dtb.rdAccesses                0                       # TLB accesses on read requests (Count)
system.atomicCpu0.mmu.dtb.wrAccesses                0                       # TLB accesses on write requests (Count)
system.atomicCpu0.mmu.dtb.rdMisses                  0                       # TLB misses on read requests (Count)
system.atomicCpu0.mmu.dtb.wrMisses                  0                       # TLB misses on write requests (Count)
system.atomicCpu0.mmu.dtb.walker.power_state.pwrStateResidencyTicks::UNDEFINED 18925298861750                       # Cumulative time (in ticks) in various power states (Tick)
system.atomicCpu0.mmu.itb.rdAccesses                0                       # TLB accesses on read requests (Count)
system.atomicCpu0.mmu.itb.wrAccesses                0                       # TLB accesses on write requests (Count)
system.atomicCpu0.mmu.itb.rdMisses                  0                       # TLB misses on read requests (Count)
system.atomicCpu0.mmu.itb.wrMisses                  0                       # TLB misses on write requests (Count)
system.atomicCpu0.mmu.itb.walker.power_state.pwrStateResidencyTicks::UNDEFINED 18925298861750                       # Cumulative time (in ticks) in various power states (Tick)
system.atomicCpu0.power_state.pwrStateResidencyTicks::OFF 18925298861750                       # Cumulative time (in ticks) in various power states (Tick)
system.atomicCpu0.thread_0.numInsts                 0                       # Number of Instructions committed (Count)
system.atomicCpu0.thread_0.numOps                   0                       # Number of Ops committed (Count)
system.atomicCpu0.thread_0.numMemRefs               0                       # Number of Memory References (Count)
system.atomicCpu1.numCycles                         0                       # Number of cpu cycles simulated (Cycle)
system.atomicCpu1.numWorkItemsStarted               0                       # Number of work items this cpu started (Count)
system.atomicCpu1.numWorkItemsCompleted             0                       # Number of work items this cpu completed (Count)
system.atomicCpu1.exec_context.thread_0.numInsts            0                       # Number of instructions committed (Count)
system.atomicCpu1.exec_context.thread_0.numOps            0                       # Number of ops (including micro ops) committed (Count)
system.atomicCpu1.exec_context.thread_0.numIntAluAccesses            0                       # Number of integer alu accesses (Count)
system.atomicCpu1.exec_context.thread_0.numFpAluAccesses            0                       # Number of float alu accesses (Count)
system.atomicCpu1.exec_context.thread_0.numVecAluAccesses            0                       # Number of vector alu accesses (Count)
system.atomicCpu1.exec_context.thread_0.numCallsReturns            0                       # Number of times a function call or return occured (Count)
system.atomicCpu1.exec_context.thread_0.numCondCtrlInsts            0                       # Number of instructions that are conditional controls (Count)
system.atomicCpu1.exec_context.thread_0.numIntInsts            0                       # Number of integer instructions (Count)
system.atomicCpu1.exec_context.thread_0.numFpInsts            0                       # Number of float instructions (Count)
system.atomicCpu1.exec_context.thread_0.numVecInsts            0                       # Number of vector instructions (Count)
system.atomicCpu1.exec_context.thread_0.numIntRegReads            0                       # Number of times the integer registers were read (Count)
system.atomicCpu1.exec_context.thread_0.numIntRegWrites            0                       # Number of times the integer registers were written (Count)
system.atomicCpu1.exec_context.thread_0.numFpRegReads            0                       # Number of times the floating registers were read (Count)
system.atomicCpu1.exec_context.thread_0.numFpRegWrites            0                       # Number of times the floating registers were written (Count)
system.atomicCpu1.exec_context.thread_0.numVecRegReads            0                       # Number of times the vector registers were read (Count)
system.atomicCpu1.exec_context.thread_0.numVecRegWrites            0                       # Number of times the vector registers were written (Count)
system.atomicCpu1.exec_context.thread_0.numVecPredRegReads            0                       # Number of times the predicate registers were read (Count)
system.atomicCpu1.exec_context.thread_0.numVecPredRegWrites            0                       # Number of times the predicate registers were written (Count)
system.atomicCpu1.exec_context.thread_0.numMiscRegReads            0                       # Number of times the Misc registers were read (Count)
system.atomicCpu1.exec_context.thread_0.numMiscRegWrites            0                       # Number of times the Misc registers were written (Count)
system.atomicCpu1.exec_context.thread_0.numMemRefs            0                       # Number of memory refs (Count)
system.atomicCpu1.exec_context.thread_0.numLoadInsts            0                       # Number of load instructions (Count)
system.atomicCpu1.exec_context.thread_0.numStoreInsts            0                       # Number of store instructions (Count)
system.atomicCpu1.exec_context.thread_0.numIdleCycles            0                       # Number of idle cycles (Cycle)
system.atomicCpu1.exec_context.thread_0.numBusyCycles            0                       # Number of busy cycles (Cycle)
system.atomicCpu1.exec_context.thread_0.notIdleFraction            0                       # Percentage of non-idle cycles (Ratio)
system.atomicCpu1.exec_context.thread_0.idleFraction            1                       # Percentage of idle cycles (Ratio)
system.atomicCpu1.exec_context.thread_0.statExecutedInstType::No_OpClass            0                       # Class of executed instruction. (Count)
system.atomicCpu1.exec_context.thread_0.statExecutedInstType::IntAlu            0                       # Class of executed instruction. (Count)
system.atomicCpu1.exec_context.thread_0.statExecutedInstType::IntMult            0                       # Class of executed instruction. (Count)
system.atomicCpu1.exec_context.thread_0.statExecutedInstType::IntDiv            0                       # Class of executed instruction. (Count)
system.atomicCpu1.exec_context.thread_0.statExecutedInstType::FloatAdd            0                       # Class of executed instruction. (Count)
system.atomicCpu1.exec_context.thread_0.statExecutedInstType::FloatCmp            0                       # Class of executed instruction. (Count)
system.atomicCpu1.exec_context.thread_0.statExecutedInstType::FloatCvt            0                       # Class of executed instruction. (Count)
system.atomicCpu1.exec_context.thread_0.statExecutedInstType::FloatMult            0                       # Class of executed instruction. (Count)
system.atomicCpu1.exec_context.thread_0.statExecutedInstType::FloatMultAcc            0                       # Class of executed instruction. (Count)
system.atomicCpu1.exec_context.thread_0.statExecutedInstType::FloatDiv            0                       # Class of executed instruction. (Count)
system.atomicCpu1.exec_context.thread_0.statExecutedInstType::FloatMisc            0                       # Class of executed instruction. (Count)
system.atomicCpu1.exec_context.thread_0.statExecutedInstType::FloatSqrt            0                       # Class of executed instruction. (Count)
system.atomicCpu1.exec_context.thread_0.statExecutedInstType::SimdAdd            0                       # Class of executed instruction. (Count)
system.atomicCpu1.exec_context.thread_0.statExecutedInstType::SimdAddAcc            0                       # Class of executed instruction. (Count)
system.atomicCpu1.exec_context.thread_0.statExecutedInstType::SimdAlu            0                       # Class of executed instruction. (Count)
system.atomicCpu1.exec_context.thread_0.statExecutedInstType::SimdCmp            0                       # Class of executed instruction. (Count)
system.atomicCpu1.exec_context.thread_0.statExecutedInstType::SimdCvt            0                       # Class of executed instruction. (Count)
system.atomicCpu1.exec_context.thread_0.statExecutedInstType::SimdMisc            0                       # Class of executed instruction. (Count)
system.atomicCpu1.exec_context.thread_0.statExecutedInstType::SimdMult            0                       # Class of executed instruction. (Count)
system.atomicCpu1.exec_context.thread_0.statExecutedInstType::SimdMultAcc            0                       # Class of executed instruction. (Count)
system.atomicCpu1.exec_context.thread_0.statExecutedInstType::SimdShift            0                       # Class of executed instruction. (Count)
system.atomicCpu1.exec_context.thread_0.statExecutedInstType::SimdShiftAcc            0                       # Class of executed instruction. (Count)
system.atomicCpu1.exec_context.thread_0.statExecutedInstType::SimdDiv            0                       # Class of executed instruction. (Count)
system.atomicCpu1.exec_context.thread_0.statExecutedInstType::SimdSqrt            0                       # Class of executed instruction. (Count)
system.atomicCpu1.exec_context.thread_0.statExecutedInstType::SimdFloatAdd            0                       # Class of executed instruction. (Count)
system.atomicCpu1.exec_context.thread_0.statExecutedInstType::SimdFloatAlu            0                       # Class of executed instruction. (Count)
system.atomicCpu1.exec_context.thread_0.statExecutedInstType::SimdFloatCmp            0                       # Class of executed instruction. (Count)
system.atomicCpu1.exec_context.thread_0.statExecutedInstType::SimdFloatCvt            0                       # Class of executed instruction. (Count)
system.atomicCpu1.exec_context.thread_0.statExecutedInstType::SimdFloatDiv            0                       # Class of executed instruction. (Count)
system.atomicCpu1.exec_context.thread_0.statExecutedInstType::SimdFloatMisc            0                       # Class of executed instruction. (Count)
system.atomicCpu1.exec_context.thread_0.statExecutedInstType::SimdFloatMult            0                       # Class of executed instruction. (Count)
system.atomicCpu1.exec_context.thread_0.statExecutedInstType::SimdFloatMultAcc            0                       # Class of executed instruction. (Count)
system.atomicCpu1.exec_context.thread_0.statExecutedInstType::SimdFloatSqrt            0                       # Class of executed instruction. (Count)
system.atomicCpu1.exec_context.thread_0.statExecutedInstType::SimdReduceAdd            0                       # Class of executed instruction. (Count)
system.atomicCpu1.exec_context.thread_0.statExecutedInstType::SimdReduceAlu            0                       # Class of executed instruction. (Count)
system.atomicCpu1.exec_context.thread_0.statExecutedInstType::SimdReduceCmp            0                       # Class of executed instruction. (Count)
system.atomicCpu1.exec_context.thread_0.statExecutedInstType::SimdFloatReduceAdd            0                       # Class of executed instruction. (Count)
system.atomicCpu1.exec_context.thread_0.statExecutedInstType::SimdFloatReduceCmp            0                       # Class of executed instruction. (Count)
system.atomicCpu1.exec_context.thread_0.statExecutedInstType::SimdAes            0                       # Class of executed instruction. (Count)
system.atomicCpu1.exec_context.thread_0.statExecutedInstType::SimdAesMix            0                       # Class of executed instruction. (Count)
system.atomicCpu1.exec_context.thread_0.statExecutedInstType::SimdSha1Hash            0                       # Class of executed instruction. (Count)
system.atomicCpu1.exec_context.thread_0.statExecutedInstType::SimdSha1Hash2            0                       # Class of executed instruction. (Count)
system.atomicCpu1.exec_context.thread_0.statExecutedInstType::SimdSha256Hash            0                       # Class of executed instruction. (Count)
system.atomicCpu1.exec_context.thread_0.statExecutedInstType::SimdSha256Hash2            0                       # Class of executed instruction. (Count)
system.atomicCpu1.exec_context.thread_0.statExecutedInstType::SimdShaSigma2            0                       # Class of executed instruction. (Count)
system.atomicCpu1.exec_context.thread_0.statExecutedInstType::SimdShaSigma3            0                       # Class of executed instruction. (Count)
system.atomicCpu1.exec_context.thread_0.statExecutedInstType::SimdPredAlu            0                       # Class of executed instruction. (Count)
system.atomicCpu1.exec_context.thread_0.statExecutedInstType::MemRead            0                       # Class of executed instruction. (Count)
system.atomicCpu1.exec_context.thread_0.statExecutedInstType::MemWrite            0                       # Class of executed instruction. (Count)
system.atomicCpu1.exec_context.thread_0.statExecutedInstType::FloatMemRead            0                       # Class of executed instruction. (Count)
system.atomicCpu1.exec_context.thread_0.statExecutedInstType::FloatMemWrite            0                       # Class of executed instruction. (Count)
system.atomicCpu1.exec_context.thread_0.statExecutedInstType::IprAccess            0                       # Class of executed instruction. (Count)
system.atomicCpu1.exec_context.thread_0.statExecutedInstType::InstPrefetch            0                       # Class of executed instruction. (Count)
system.atomicCpu1.exec_context.thread_0.statExecutedInstType::total            0                       # Class of executed instruction. (Count)
system.atomicCpu1.mmu.dtb.rdAccesses                0                       # TLB accesses on read requests (Count)
system.atomicCpu1.mmu.dtb.wrAccesses                0                       # TLB accesses on write requests (Count)
system.atomicCpu1.mmu.dtb.rdMisses                  0                       # TLB misses on read requests (Count)
system.atomicCpu1.mmu.dtb.wrMisses                  0                       # TLB misses on write requests (Count)
system.atomicCpu1.mmu.dtb.walker.power_state.pwrStateResidencyTicks::UNDEFINED 18925298861750                       # Cumulative time (in ticks) in various power states (Tick)
system.atomicCpu1.mmu.itb.rdAccesses                0                       # TLB accesses on read requests (Count)
system.atomicCpu1.mmu.itb.wrAccesses                0                       # TLB accesses on write requests (Count)
system.atomicCpu1.mmu.itb.rdMisses                  0                       # TLB misses on read requests (Count)
system.atomicCpu1.mmu.itb.wrMisses                  0                       # TLB misses on write requests (Count)
system.atomicCpu1.mmu.itb.walker.power_state.pwrStateResidencyTicks::UNDEFINED 18925298861750                       # Cumulative time (in ticks) in various power states (Tick)
system.atomicCpu1.power_state.pwrStateResidencyTicks::OFF 18925298861750                       # Cumulative time (in ticks) in various power states (Tick)
system.atomicCpu1.thread_0.numInsts                 0                       # Number of Instructions committed (Count)
system.atomicCpu1.thread_0.numOps                   0                       # Number of Ops committed (Count)
system.atomicCpu1.thread_0.numMemRefs               0                       # Number of Memory References (Count)
system.caches.delayHistogram::bucket_size            2                       # delay histogram for all message (Unspecified)
system.caches.delayHistogram::max_bucket           19                       # delay histogram for all message (Unspecified)
system.caches.delayHistogram::samples        62107041                       # delay histogram for all message (Unspecified)
system.caches.delayHistogram::mean           0.826079                       # delay histogram for all message (Unspecified)
system.caches.delayHistogram::stdev          2.458828                       # delay histogram for all message (Unspecified)
system.caches.delayHistogram             |    55748056     89.76%     89.76% |        6956      0.01%     89.77% |        2684      0.00%     89.78% |        2772      0.00%     89.78% |     6238121     10.04%     99.83% |       73971      0.12%     99.94% |         206      0.00%     99.94% |         514      0.00%     99.95% |         366      0.00%     99.95% |       33395      0.05%    100.00% # delay histogram for all message (Unspecified)
system.caches.delayHistogram::total          62107041                       # delay histogram for all message (Unspecified)
system.caches.m_outstandReqHistSeqr::bucket_size            1                       (Unspecified)
system.caches.m_outstandReqHistSeqr::max_bucket            9                       (Unspecified)
system.caches.m_outstandReqHistSeqr::samples   7901053826                       (Unspecified)
system.caches.m_outstandReqHistSeqr::mean            1                       (Unspecified)
system.caches.m_outstandReqHistSeqr::gmean            1                       (Unspecified)
system.caches.m_outstandReqHistSeqr      |           0      0.00%      0.00% |  7901053826    100.00%    100.00% |           0      0.00%    100.00% |           0      0.00%    100.00% |           0      0.00%    100.00% |           0      0.00%    100.00% |           0      0.00%    100.00% |           0      0.00%    100.00% |           0      0.00%    100.00% |           0      0.00%    100.00% (Unspecified)
system.caches.m_outstandReqHistSeqr::total   7901053826                       (Unspecified)
system.caches.m_latencyHistSeqr::bucket_size          256                       (Unspecified)
system.caches.m_latencyHistSeqr::max_bucket         2559                       (Unspecified)
system.caches.m_latencyHistSeqr::samples   7901053825                       (Unspecified)
system.caches.m_latencyHistSeqr::mean        1.024717                       (Unspecified)
system.caches.m_latencyHistSeqr::gmean       1.004334                       (Unspecified)
system.caches.m_latencyHistSeqr::stdev       1.327193                       (Unspecified)
system.caches.m_latencyHistSeqr          |  7901016435    100.00%    100.00% |       33132      0.00%    100.00% |        2554      0.00%    100.00% |         519      0.00%    100.00% |         198      0.00%    100.00% |         225      0.00%    100.00% |         333      0.00%    100.00% |         409      0.00%    100.00% |          14      0.00%    100.00% |           6      0.00%    100.00% (Unspecified)
system.caches.m_latencyHistSeqr::total     7901053825                       (Unspecified)
system.caches.m_hitLatencyHistSeqr::bucket_size            1                       (Unspecified)
system.caches.m_hitLatencyHistSeqr::max_bucket            9                       (Unspecified)
system.caches.m_hitLatencyHistSeqr::samples   7888452502                       (Unspecified)
system.caches.m_hitLatencyHistSeqr::mean            1                       (Unspecified)
system.caches.m_hitLatencyHistSeqr::gmean            1                       (Unspecified)
system.caches.m_hitLatencyHistSeqr       |           0      0.00%      0.00% |  7888452502    100.00%    100.00% |           0      0.00%    100.00% |           0      0.00%    100.00% |           0      0.00%    100.00% |           0      0.00%    100.00% |           0      0.00%    100.00% |           0      0.00%    100.00% |           0      0.00%    100.00% |           0      0.00%    100.00% (Unspecified)
system.caches.m_hitLatencyHistSeqr::total   7888452502                       (Unspecified)
system.caches.m_missLatencyHistSeqr::bucket_size          256                       (Unspecified)
system.caches.m_missLatencyHistSeqr::max_bucket         2559                       (Unspecified)
system.caches.m_missLatencyHistSeqr::samples     12601323                       (Unspecified)
system.caches.m_missLatencyHistSeqr::mean    16.497643                       (Unspecified)
system.caches.m_missLatencyHistSeqr::gmean    15.050738                       (Unspecified)
system.caches.m_missLatencyHistSeqr::stdev    29.404636                       (Unspecified)
system.caches.m_missLatencyHistSeqr      |    12563933     99.70%     99.70% |       33132      0.26%     99.97% |        2554      0.02%     99.99% |         519      0.00%     99.99% |         198      0.00%     99.99% |         225      0.00%     99.99% |         333      0.00%    100.00% |         409      0.00%    100.00% |          14      0.00%    100.00% |           6      0.00%    100.00% (Unspecified)
system.caches.m_missLatencyHistSeqr::total     12601323                       (Unspecified)
system.caches.delayVCHist.vnet_0::bucket_size            2                       # delay histogram for vnet_0 (Unspecified)
system.caches.delayVCHist.vnet_0::max_bucket           19                       # delay histogram for vnet_0 (Unspecified)
system.caches.delayVCHist.vnet_0::samples     37162378                       # delay histogram for vnet_0 (Unspecified)
system.caches.delayVCHist.vnet_0::mean       1.380571                       # delay histogram for vnet_0 (Unspecified)
system.caches.delayVCHist.vnet_0::stdev      3.055895                       # delay histogram for vnet_0 (Unspecified)
system.caches.delayVCHist.vnet_0         |    30803398     82.89%     82.89% |        6951      0.02%     82.91% |        2684      0.01%     82.91% |        2772      0.01%     82.92% |     6238121     16.79%     99.71% |       73971      0.20%     99.91% |         206      0.00%     99.91% |         514      0.00%     99.91% |         366      0.00%     99.91% |       33395      0.09%    100.00% # delay histogram for vnet_0 (Unspecified)
system.caches.delayVCHist.vnet_0::total      37162378                       # delay histogram for vnet_0 (Unspecified)
system.caches.delayVCHist.vnet_1::bucket_size            1                       # delay histogram for vnet_1 (Unspecified)
system.caches.delayVCHist.vnet_1::max_bucket            9                       # delay histogram for vnet_1 (Unspecified)
system.caches.delayVCHist.vnet_1::samples     24921962                       # delay histogram for vnet_1 (Unspecified)
system.caches.delayVCHist.vnet_1         |    24921962    100.00%    100.00% |           0      0.00%    100.00% |           0      0.00%    100.00% |           0      0.00%    100.00% |           0      0.00%    100.00% |           0      0.00%    100.00% |           0      0.00%    100.00% |           0      0.00%    100.00% |           0      0.00%    100.00% |           0      0.00%    100.00% # delay histogram for vnet_1 (Unspecified)
system.caches.delayVCHist.vnet_1::total      24921962                       # delay histogram for vnet_1 (Unspecified)
system.caches.delayVCHist.vnet_2::bucket_size            1                       # delay histogram for vnet_2 (Unspecified)
system.caches.delayVCHist.vnet_2::max_bucket            9                       # delay histogram for vnet_2 (Unspecified)
system.caches.delayVCHist.vnet_2::samples        22701                       # delay histogram for vnet_2 (Unspecified)
system.caches.delayVCHist.vnet_2::mean       0.000441                       # delay histogram for vnet_2 (Unspecified)
system.caches.delayVCHist.vnet_2::stdev      0.029679                       # delay histogram for vnet_2 (Unspecified)
system.caches.delayVCHist.vnet_2         |       22696     99.98%     99.98% |           0      0.00%     99.98% |           5      0.02%    100.00% |           0      0.00%    100.00% |           0      0.00%    100.00% |           0      0.00%    100.00% |           0      0.00%    100.00% |           0      0.00%    100.00% |           0      0.00%    100.00% |           0      0.00%    100.00% # delay histogram for vnet_2 (Unspecified)
system.caches.delayVCHist.vnet_2::total         22701                       # delay histogram for vnet_2 (Unspecified)
system.caches.L1Cache_Controller.Load    |   453465113     50.01%     50.01% |   453220525     49.99%    100.00% (Unspecified)
system.caches.L1Cache_Controller.Load::total    906685638                       (Unspecified)
system.caches.L1Cache_Controller.Ifetch  |18446744072719015936     50.00%     50.00% |18446744072719173632     50.00%    100.00% (Unspecified)
system.caches.L1Cache_Controller.Ifetch::total 36893488145438187520                       (Unspecified)
system.caches.L1Cache_Controller.Store   |   192831057     50.04%     50.04% |   192516261     49.96%    100.00% (Unspecified)
system.caches.L1Cache_Controller.Store::total    385347318                       (Unspecified)
system.caches.L1Cache_Controller.Inv     |          95      0.86%      0.86% |       10967     99.14%    100.00% (Unspecified)
system.caches.L1Cache_Controller.Inv::total        11062                       (Unspecified)
system.caches.L1Cache_Controller.L1_Replacement |     6300686     50.15%     50.15% |     6262424     49.85%    100.00% (Unspecified)
system.caches.L1Cache_Controller.L1_Replacement::total     12563110                       (Unspecified)
system.caches.L1Cache_Controller.Fwd_GETX |           5      2.23%      2.23% |         219     97.77%    100.00% (Unspecified)
system.caches.L1Cache_Controller.Fwd_GETX::total          224                       (Unspecified)
system.caches.L1Cache_Controller.Fwd_GETS |       11188     98.01%     98.01% |         227      1.99%    100.00% (Unspecified)
system.caches.L1Cache_Controller.Fwd_GETS::total        11415                       (Unspecified)
system.caches.L1Cache_Controller.Data    |         562     99.47%     99.47% |           3      0.53%    100.00% (Unspecified)
system.caches.L1Cache_Controller.Data::total          565                       (Unspecified)
system.caches.L1Cache_Controller.Data_Exclusive |     3003525     49.96%     49.96% |     3008539     50.04%    100.00% (Unspecified)
system.caches.L1Cache_Controller.Data_Exclusive::total      6012064                       (Unspecified)
system.caches.L1Cache_Controller.DataS_fromL1 |         227      1.99%      1.99% |       11188     98.01%    100.00% (Unspecified)
system.caches.L1Cache_Controller.DataS_fromL1::total        11415                       (Unspecified)
system.caches.L1Cache_Controller.Data_all_Acks |     3305069     50.33%     50.33% |     3261713     49.67%    100.00% (Unspecified)
system.caches.L1Cache_Controller.Data_all_Acks::total      6566782                       (Unspecified)
system.caches.L1Cache_Controller.Ack     |       10405     99.12%     99.12% |          92      0.88%    100.00% (Unspecified)
system.caches.L1Cache_Controller.Ack::total        10497                       (Unspecified)
system.caches.L1Cache_Controller.Ack_all |       10967     99.14%     99.14% |          95      0.86%    100.00% (Unspecified)
system.caches.L1Cache_Controller.Ack_all::total        11062                       (Unspecified)
system.caches.L1Cache_Controller.WB_Ack  |     6127078     49.97%     49.97% |     6133805     50.03%    100.00% (Unspecified)
system.caches.L1Cache_Controller.WB_Ack::total     12260883                       (Unspecified)
system.caches.L1Cache_Controller.NP.Load |     3064242     49.95%     49.95% |     3070216     50.05%    100.00% (Unspecified)
system.caches.L1Cache_Controller.NP.Load::total      6134458                       (Unspecified)
system.caches.L1Cache_Controller.NP.Ifetch |      112681     62.65%     62.65% |       67170     37.35%    100.00% (Unspecified)
system.caches.L1Cache_Controller.NP.Ifetch::total       179851                       (Unspecified)
system.caches.L1Cache_Controller.NP.Store |     3132457     49.99%     49.99% |     3133736     50.01%    100.00% (Unspecified)
system.caches.L1Cache_Controller.NP.Store::total      6266193                       (Unspecified)
system.caches.L1Cache_Controller.NP.Inv  |          25      6.38%      6.38% |         367     93.62%    100.00% (Unspecified)
system.caches.L1Cache_Controller.NP.Inv::total          392                       (Unspecified)
system.caches.L1Cache_Controller.I.Load  |           3      0.03%      0.03% |       10319     99.97%    100.00% (Unspecified)
system.caches.L1Cache_Controller.I.Load::total        10322                       (Unspecified)
system.caches.L1Cache_Controller.I.Store |           1     33.33%     33.33% |           2     66.67%    100.00% (Unspecified)
system.caches.L1Cache_Controller.I.Store::total            3                       (Unspecified)
system.caches.L1Cache_Controller.I.L1_Replacement |          71     12.48%     12.48% |         498     87.52%    100.00% (Unspecified)
system.caches.L1Cache_Controller.I.L1_Replacement::total          569                       (Unspecified)
system.caches.L1Cache_Controller.S.Load  |   211092612     49.98%     49.98% |   211289724     50.02%    100.00% (Unspecified)
system.caches.L1Cache_Controller.S.Load::total    422382336                       (Unspecified)
system.caches.L1Cache_Controller.S.Ifetch |18446744072718903296     50.00%     50.00% |18446744072719108096     50.00%    100.00% (Unspecified)
system.caches.L1Cache_Controller.S.Ifetch::total 36893488145438011392                       (Unspecified)
system.caches.L1Cache_Controller.S.Store |       10405     99.12%     99.12% |          92      0.88%    100.00% (Unspecified)
system.caches.L1Cache_Controller.S.Store::total        10497                       (Unspecified)
system.caches.L1Cache_Controller.S.Inv   |          70      0.66%      0.66% |       10599     99.34%    100.00% (Unspecified)
system.caches.L1Cache_Controller.S.Inv::total        10669                       (Unspecified)
system.caches.L1Cache_Controller.S.L1_Replacement |      173536     57.53%     57.53% |      128121     42.47%    100.00% (Unspecified)
system.caches.L1Cache_Controller.S.L1_Replacement::total       301657                       (Unspecified)
system.caches.L1Cache_Controller.E.Load  |    41003960     50.10%     50.10% |    40841835     49.90%    100.00% (Unspecified)
system.caches.L1Cache_Controller.E.Load::total     81845795                       (Unspecified)
system.caches.L1Cache_Controller.E.Store |        7230     58.31%     58.31% |        5170     41.69%    100.00% (Unspecified)
system.caches.L1Cache_Controller.E.Store::total        12400                       (Unspecified)
system.caches.L1Cache_Controller.E.L1_Replacement |     2995806     49.94%     49.94% |     3002977     50.06%    100.00% (Unspecified)
system.caches.L1Cache_Controller.E.L1_Replacement::total      5998783                       (Unspecified)
system.caches.L1Cache_Controller.E.Fwd_GETX |           0      0.00%      0.00% |         204    100.00%    100.00% (Unspecified)
system.caches.L1Cache_Controller.E.Fwd_GETX::total          204                       (Unspecified)
system.caches.L1Cache_Controller.E.Fwd_GETS |         438     76.04%     76.04% |         138     23.96%    100.00% (Unspecified)
system.caches.L1Cache_Controller.E.Fwd_GETS::total          576                       (Unspecified)
system.caches.L1Cache_Controller.M.Load  |   198304296     50.04%     50.04% |   198008431     49.96%    100.00% (Unspecified)
system.caches.L1Cache_Controller.M.Load::total    396312727                       (Unspecified)
system.caches.L1Cache_Controller.M.Store |   189680964     50.04%     50.04% |   189377261     49.96%    100.00% (Unspecified)
system.caches.L1Cache_Controller.M.Store::total    379058225                       (Unspecified)
system.caches.L1Cache_Controller.M.L1_Replacement |     3131273     50.00%     50.00% |     3130828     50.00%    100.00% (Unspecified)
system.caches.L1Cache_Controller.M.L1_Replacement::total      6262101                       (Unspecified)
system.caches.L1Cache_Controller.M.Fwd_GETX |           5     25.00%     25.00% |          15     75.00%    100.00% (Unspecified)
system.caches.L1Cache_Controller.M.Fwd_GETX::total           20                       (Unspecified)
system.caches.L1Cache_Controller.M.Fwd_GETS |       10750     99.18%     99.18% |          89      0.82%    100.00% (Unspecified)
system.caches.L1Cache_Controller.M.Fwd_GETS::total        10839                       (Unspecified)
system.caches.L1Cache_Controller.IS.Inv  |           0      0.00%      0.00% |           1    100.00%    100.00% (Unspecified)
system.caches.L1Cache_Controller.IS.Inv::total            1                       (Unspecified)
system.caches.L1Cache_Controller.IS.Data_Exclusive |     3003525     49.96%     49.96% |     3008539     50.04%    100.00% (Unspecified)
system.caches.L1Cache_Controller.IS.Data_Exclusive::total      6012064                       (Unspecified)
system.caches.L1Cache_Controller.IS.DataS_fromL1 |         227      1.99%      1.99% |       11187     98.01%    100.00% (Unspecified)
system.caches.L1Cache_Controller.IS.DataS_fromL1::total        11414                       (Unspecified)
system.caches.L1Cache_Controller.IS.Data_all_Acks |      173174     57.50%     57.50% |      127978     42.50%    100.00% (Unspecified)
system.caches.L1Cache_Controller.IS.Data_all_Acks::total       301152                       (Unspecified)
system.caches.L1Cache_Controller.IM.Data |         562     99.47%     99.47% |           3      0.53%    100.00% (Unspecified)
system.caches.L1Cache_Controller.IM.Data::total          565                       (Unspecified)
system.caches.L1Cache_Controller.IM.Data_all_Acks |     3131895     49.99%     49.99% |     3133735     50.01%    100.00% (Unspecified)
system.caches.L1Cache_Controller.IM.Data_all_Acks::total      6265630                       (Unspecified)
system.caches.L1Cache_Controller.SM.Ack  |       10405     99.12%     99.12% |          92      0.88%    100.00% (Unspecified)
system.caches.L1Cache_Controller.SM.Ack::total        10497                       (Unspecified)
system.caches.L1Cache_Controller.SM.Ack_all |       10967     99.14%     99.14% |          95      0.86%    100.00% (Unspecified)
system.caches.L1Cache_Controller.SM.Ack_all::total        11062                       (Unspecified)
system.caches.L1Cache_Controller.IS_I.DataS_fromL1 |           0      0.00%      0.00% |           1    100.00%    100.00% (Unspecified)
system.caches.L1Cache_Controller.IS_I.DataS_fromL1::total            1                       (Unspecified)
system.caches.L1Cache_Controller.M_I.WB_Ack |     6127078     49.97%     49.97% |     6133805     50.03%    100.00% (Unspecified)
system.caches.L1Cache_Controller.M_I.WB_Ack::total     12260883                       (Unspecified)
system.caches.Directory_Controller.Fetch        37279      0.00%      0.00% (Unspecified)
system.caches.Directory_Controller.Memory_Data        37279      0.00%      0.00% (Unspecified)
system.caches.Directory_Controller.I.Fetch        37279      0.00%      0.00% (Unspecified)
system.caches.Directory_Controller.IM.Memory_Data        37279      0.00%      0.00% (Unspecified)
system.caches.L2Cache_Controller.L1_GET_INSTR |       23782     13.22%     13.22% |       25503     14.18%     27.40% |       30127     16.75%     44.15% |        5865      3.26%     47.42% |       12918      7.18%     54.60% |       21804     12.12%     66.72% |       24900     13.84%     80.57% |       34952     19.43%    100.00% (Unspecified)
system.caches.L2Cache_Controller.L1_GET_INSTR::total       179851                       (Unspecified)
system.caches.L2Cache_Controller.L1_GETS |      772863     12.57%     12.57% |      768678     12.51%     25.08% |      768877     12.51%     37.59% |      766664     12.47%     50.06% |      768125     12.50%     62.56% |      764815     12.44%     75.00% |      772011     12.56%     87.56% |      764570     12.44%    100.00% (Unspecified)
system.caches.L2Cache_Controller.L1_GETS::total      6146603                       (Unspecified)
system.caches.L2Cache_Controller.L1_GETX |      783531     12.50%     12.50% |      783699     12.51%     25.01% |      782472     12.49%     37.50% |      783179     12.50%     50.00% |      782840     12.49%     62.49% |      785020     12.53%     75.02% |      784031     12.51%     87.53% |      781423     12.47%    100.00% (Unspecified)
system.caches.L2Cache_Controller.L1_GETX::total      6266195                       (Unspecified)
system.caches.L2Cache_Controller.L1_UPGRADE |        3466     29.46%     29.46% |        1947     16.55%     46.01% |          14      0.12%     46.13% |           0      0.00%     46.13% |          44      0.37%     46.50% |           6      0.05%     46.55% |        6255     53.17%     99.72% |          33      0.28%    100.00% (Unspecified)
system.caches.L2Cache_Controller.L1_UPGRADE::total        11765                       (Unspecified)
system.caches.L2Cache_Controller.L1_PUTX |     1528832     12.47%     12.47% |     1534314     12.51%     24.98% |     1532096     12.50%     37.48% |     1533408     12.51%     49.99% |     1534624     12.52%     62.50% |     1534750     12.52%     75.02% |     1534411     12.51%     87.53% |     1528449     12.47%    100.00% (Unspecified)
system.caches.L2Cache_Controller.L1_PUTX::total     12260884                       (Unspecified)
system.caches.L2Cache_Controller.Mem_Data |        4716     12.65%     12.65% |        4657     12.49%     25.14% |        4647     12.47%     37.61% |        4660     12.50%     50.11% |        4656     12.49%     62.60% |        4674     12.54%     75.14% |        4634     12.43%     87.57% |        4635     12.43%    100.00% (Unspecified)
system.caches.L2Cache_Controller.Mem_Data::total        37279                       (Unspecified)
system.caches.L2Cache_Controller.WB_Data |        3782     34.89%     34.89% |        1740     16.05%     50.95% |          13      0.12%     51.07% |           1      0.01%     51.07% |          36      0.33%     51.41% |           7      0.06%     51.47% |        5226     48.21%     99.69% |          34      0.31%    100.00% (Unspecified)
system.caches.L2Cache_Controller.WB_Data::total        10839                       (Unspecified)
system.caches.L2Cache_Controller.WB_Data_clean |          59     10.24%     10.24% |         248     43.06%     53.30% |          50      8.68%     61.98% |          41      7.12%     69.10% |          55      9.55%     78.65% |          40      6.94%     85.59% |          37      6.42%     92.01% |          46      7.99%    100.00% (Unspecified)
system.caches.L2Cache_Controller.WB_Data_clean::total          576                       (Unspecified)
system.caches.L2Cache_Controller.Unblock |        3841     33.65%     33.65% |        1988     17.42%     51.06% |          63      0.55%     51.62% |          42      0.37%     51.98% |          91      0.80%     52.78% |          47      0.41%     53.19% |        5263     46.11%     99.30% |          80      0.70%    100.00% (Unspecified)
system.caches.L2Cache_Controller.Unblock::total        11415                       (Unspecified)
system.caches.L2Cache_Controller.Exclusive_Unblock |     1534886     12.49%     12.49% |     1538338     12.52%     25.01% |     1534186     12.48%     37.49% |     1535487     12.50%     49.99% |     1536752     12.51%     62.49% |     1536835     12.51%     75.00% |     1541718     12.55%     87.55% |     1530554     12.45%    100.00% (Unspecified)
system.caches.L2Cache_Controller.Exclusive_Unblock::total     12288756                       (Unspecified)
system.caches.L2Cache_Controller.NP.L1_GET_INSTR |         250     11.97%     11.97% |         259     12.40%     24.38% |         268     12.84%     37.21% |         275     13.17%     50.38% |         267     12.79%     63.17% |         273     13.07%     76.25% |         255     12.21%     88.46% |         241     11.54%    100.00% (Unspecified)
system.caches.L2Cache_Controller.NP.L1_GET_INSTR::total         2088                       (Unspecified)
system.caches.L2Cache_Controller.NP.L1_GETS |        3419     12.73%     12.73% |        3362     12.52%     25.25% |        3337     12.43%     37.68% |        3350     12.48%     50.16% |        3345     12.46%     62.62% |        3352     12.48%     75.10% |        3337     12.43%     87.53% |        3349     12.47%    100.00% (Unspecified)
system.caches.L2Cache_Controller.NP.L1_GETS::total        26851                       (Unspecified)
system.caches.L2Cache_Controller.NP.L1_GETX |        1047     12.55%     12.55% |        1036     12.42%     24.98% |        1042     12.49%     37.47% |        1035     12.41%     49.88% |        1044     12.52%     62.40% |        1049     12.58%     74.98% |        1042     12.49%     87.47% |        1045     12.53%    100.00% (Unspecified)
system.caches.L2Cache_Controller.NP.L1_GETX::total         8340                       (Unspecified)
system.caches.L2Cache_Controller.SS.L1_GET_INSTR |       23521     13.24%     13.24% |       25231     14.20%     27.44% |       29847     16.80%     44.24% |        5581      3.14%     47.38% |       12636      7.11%     54.49% |       21514     12.11%     66.60% |       24634     13.87%     80.47% |       34700     19.53%    100.00% (Unspecified)
system.caches.L2Cache_Controller.SS.L1_GET_INSTR::total       177664                       (Unspecified)
system.caches.L2Cache_Controller.SS.L1_GETS |       21121     17.42%     17.42% |       13990     11.54%     28.95% |       17107     14.11%     43.06% |       14310     11.80%     54.86% |       14164     11.68%     66.54% |       12958     10.69%     77.22% |       12229     10.08%     87.31% |       15392     12.69%    100.00% (Unspecified)
system.caches.L2Cache_Controller.SS.L1_GETS::total       121271                       (Unspecified)
system.caches.L2Cache_Controller.SS.L1_GETX |         316     55.93%     55.93% |           0      0.00%     55.93% |           1      0.18%     56.11% |           0      0.00%     56.11% |           6      1.06%     57.17% |           0      0.00%     57.17% |         240     42.48%     99.65% |           2      0.35%    100.00% (Unspecified)
system.caches.L2Cache_Controller.SS.L1_GETX::total          565                       (Unspecified)
system.caches.L2Cache_Controller.SS.L1_UPGRADE |        3466     33.02%     33.02% |        1947     18.55%     51.57% |          14      0.13%     51.70% |           0      0.00%     51.70% |          44      0.42%     52.12% |           6      0.06%     52.18% |        4987     47.51%     99.69% |          33      0.31%    100.00% (Unspecified)
system.caches.L2Cache_Controller.SS.L1_UPGRADE::total        10497                       (Unspecified)
system.caches.L2Cache_Controller.M.L1_GETS |      744475     12.44%     12.44% |      749333     12.52%     24.96% |      748366     12.50%     37.46% |      748960     12.51%     49.98% |      750524     12.54%     62.51% |      748457     12.51%     75.02% |      749364     12.52%     87.54% |      745749     12.46%    100.00% (Unspecified)
system.caches.L2Cache_Controller.M.L1_GETS::total      5985228                       (Unspecified)
system.caches.L2Cache_Controller.M.L1_GETX |      781962     12.50%     12.50% |      782659     12.51%     25.01% |      781428     12.49%     37.49% |      782142     12.50%     49.99% |      781787     12.49%     62.49% |      783970     12.53%     75.02% |      782745     12.51%     87.53% |      780373     12.47%    100.00% (Unspecified)
system.caches.L2Cache_Controller.M.L1_GETX::total      6257066                       (Unspecified)
system.caches.L2Cache_Controller.MT.L1_GETS |        3841     33.65%     33.65% |        1988     17.42%     51.06% |          63      0.55%     51.62% |          42      0.37%     51.98% |          91      0.80%     52.78% |          47      0.41%     53.19% |        5263     46.11%     99.30% |          80      0.70%    100.00% (Unspecified)
system.caches.L2Cache_Controller.MT.L1_GETS::total        11415                       (Unspecified)
system.caches.L2Cache_Controller.MT.L1_GETX |         206     91.96%     91.96% |           4      1.79%     93.75% |           1      0.45%     94.20% |           2      0.89%     95.09% |           3      1.34%     96.43% |           1      0.45%     96.87% |           4      1.79%     98.66% |           3      1.34%    100.00% (Unspecified)
system.caches.L2Cache_Controller.MT.L1_GETX::total          224                       (Unspecified)
system.caches.L2Cache_Controller.MT.L1_PUTX |     1528832     12.47%     12.47% |     1534314     12.51%     24.98% |     1532096     12.50%     37.48% |     1533408     12.51%     49.99% |     1534624     12.52%     62.50% |     1534750     12.52%     75.02% |     1534411     12.51%     87.53% |     1528449     12.47%    100.00% (Unspecified)
system.caches.L2Cache_Controller.MT.L1_PUTX::total     12260884                       (Unspecified)
system.caches.L2Cache_Controller.ISS.L1_GETS |           5     33.33%     33.33% |           3     20.00%     53.33% |           3     20.00%     73.33% |           2     13.33%     86.67% |           1      6.67%     93.33% |           0      0.00%     93.33% |           1      6.67%    100.00% |           0      0.00%    100.00% (Unspecified)
system.caches.L2Cache_Controller.ISS.L1_GETS::total           15                       (Unspecified)
system.caches.L2Cache_Controller.ISS.Mem_Data |        3414     12.72%     12.72% |        3359     12.52%     25.24% |        3334     12.42%     37.66% |        3348     12.48%     50.14% |        3344     12.46%     62.60% |        3352     12.49%     75.09% |        3336     12.43%     87.52% |        3349     12.48%    100.00% (Unspecified)
system.caches.L2Cache_Controller.ISS.Mem_Data::total        26836                       (Unspecified)
system.caches.L2Cache_Controller.IS.L1_GET_INSTR |          11     11.11%     11.11% |          13     13.13%     24.24% |          12     12.12%     36.36% |           9      9.09%     45.45% |          15     15.15%     60.61% |          17     17.17%     77.78% |          11     11.11%     88.89% |          11     11.11%    100.00% (Unspecified)
system.caches.L2Cache_Controller.IS.L1_GET_INSTR::total           99                       (Unspecified)
system.caches.L2Cache_Controller.IS.Mem_Data |         255     12.13%     12.13% |         262     12.46%     24.58% |         271     12.89%     37.47% |         277     13.17%     50.64% |         268     12.74%     63.39% |         273     12.98%     76.37% |         256     12.17%     88.54% |         241     11.46%    100.00% (Unspecified)
system.caches.L2Cache_Controller.IS.Mem_Data::total         2103                       (Unspecified)
system.caches.L2Cache_Controller.IM.Mem_Data |        1047     12.55%     12.55% |        1036     12.42%     24.98% |        1042     12.49%     37.47% |        1035     12.41%     49.88% |        1044     12.52%     62.40% |        1049     12.58%     74.98% |        1042     12.49%     87.47% |        1045     12.53%    100.00% (Unspecified)
system.caches.L2Cache_Controller.IM.Mem_Data::total         8340                       (Unspecified)
system.caches.L2Cache_Controller.SS_MB.L1_GETS |           2      0.11%      0.11% |           0      0.00%      0.11% |           0      0.00%      0.11% |           0      0.00%      0.11% |           0      0.00%      0.11% |           0      0.00%      0.11% |        1817     99.89%    100.00% |           0      0.00%    100.00% (Unspecified)
system.caches.L2Cache_Controller.SS_MB.L1_GETS::total         1819                       (Unspecified)
system.caches.L2Cache_Controller.SS_MB.Exclusive_Unblock |        3782     34.19%     34.19% |        1947     17.60%     51.79% |          15      0.14%     51.93% |           0      0.00%     51.93% |          50      0.45%     52.38% |           6      0.05%     52.43% |        5227     47.25%     99.68% |          35      0.32%    100.00% (Unspecified)
system.caches.L2Cache_Controller.SS_MB.Exclusive_Unblock::total        11062                       (Unspecified)
system.caches.L2Cache_Controller.MT_MB.L1_GETS |           0      0.00%      0.00% |           2     50.00%     50.00% |           1     25.00%     75.00% |           0      0.00%     75.00% |           0      0.00%     75.00% |           1     25.00%    100.00% |           0      0.00%    100.00% |           0      0.00%    100.00% (Unspecified)
system.caches.L2Cache_Controller.MT_MB.L1_GETS::total            4                       (Unspecified)
system.caches.L2Cache_Controller.MT_MB.Exclusive_Unblock |     1531104     12.47%     12.47% |     1536391     12.51%     24.98% |     1534171     12.50%     37.48% |     1535487     12.51%     49.99% |     1536702     12.52%     62.50% |     1536829     12.52%     75.02% |     1536491     12.51%     87.53% |     1530519     12.47%    100.00% (Unspecified)
system.caches.L2Cache_Controller.MT_MB.Exclusive_Unblock::total     12277694                       (Unspecified)
system.caches.L2Cache_Controller.MT_IIB.WB_Data |        3782     34.89%     34.89% |        1740     16.05%     50.95% |          13      0.12%     51.07% |           1      0.01%     51.07% |          36      0.33%     51.41% |           7      0.06%     51.47% |        5226     48.21%     99.69% |          34      0.31%    100.00% (Unspecified)
system.caches.L2Cache_Controller.MT_IIB.WB_Data::total        10839                       (Unspecified)
system.caches.L2Cache_Controller.MT_IIB.WB_Data_clean |          59     10.24%     10.24% |         248     43.06%     53.30% |          50      8.68%     61.98% |          41      7.12%     69.10% |          55      9.55%     78.65% |          40      6.94%     85.59% |          37      6.42%     92.01% |          46      7.99%    100.00% (Unspecified)
system.caches.L2Cache_Controller.MT_IIB.WB_Data_clean::total          576                       (Unspecified)
system.caches.L2Cache_Controller.MT_SB.L1_UPGRADE |           0      0.00%      0.00% |           0      0.00%      0.00% |           0      0.00%      0.00% |           0      0.00%      0.00% |           0      0.00%      0.00% |           0      0.00%      0.00% |        1268    100.00%    100.00% |           0      0.00%    100.00% (Unspecified)
system.caches.L2Cache_Controller.MT_SB.L1_UPGRADE::total         1268                       (Unspecified)
system.caches.L2Cache_Controller.MT_SB.Unblock |        3841     33.65%     33.65% |        1988     17.42%     51.06% |          63      0.55%     51.62% |          42      0.37%     51.98% |          91      0.80%     52.78% |          47      0.41%     53.19% |        5263     46.11%     99.30% |          80      0.70%    100.00% (Unspecified)
system.caches.L2Cache_Controller.MT_SB.Unblock::total        11415                       (Unspecified)
system.caches.RequestType.LD.latency_hist_seqr::bucket_size          256                       (Unspecified)
system.caches.RequestType.LD.latency_hist_seqr::max_bucket         2559                       (Unspecified)
system.caches.RequestType.LD.latency_hist_seqr::samples    906685638                       (Unspecified)
system.caches.RequestType.LD.latency_hist_seqr::mean     1.108470                       (Unspecified)
system.caches.RequestType.LD.latency_hist_seqr::gmean     1.018497                       (Unspecified)
system.caches.RequestType.LD.latency_hist_seqr::stdev     3.218952                       (Unspecified)
system.caches.RequestType.LD.latency_hist_seqr |   906658772    100.00%    100.00% |       24280      0.00%    100.00% |        1215      0.00%    100.00% |         425      0.00%    100.00% |         191      0.00%    100.00% |         221      0.00%    100.00% |         217      0.00%    100.00% |         308      0.00%    100.00% |           6      0.00%    100.00% |           3      0.00%    100.00% (Unspecified)
system.caches.RequestType.LD.latency_hist_seqr::total    906685638                       (Unspecified)
system.caches.RequestType.LD.hit_latency_hist_seqr::bucket_size            1                       (Unspecified)
system.caches.RequestType.LD.hit_latency_hist_seqr::max_bucket            9                       (Unspecified)
system.caches.RequestType.LD.hit_latency_hist_seqr::samples    900540858                       (Unspecified)
system.caches.RequestType.LD.hit_latency_hist_seqr::mean            1                       (Unspecified)
system.caches.RequestType.LD.hit_latency_hist_seqr::gmean            1                       (Unspecified)
system.caches.RequestType.LD.hit_latency_hist_seqr |           0      0.00%      0.00% |   900540858    100.00%    100.00% |           0      0.00%    100.00% |           0      0.00%    100.00% |           0      0.00%    100.00% |           0      0.00%    100.00% |           0      0.00%    100.00% |           0      0.00%    100.00% |           0      0.00%    100.00% |           0      0.00%    100.00% (Unspecified)
system.caches.RequestType.LD.hit_latency_hist_seqr::total    900540858                       (Unspecified)
system.caches.RequestType.LD.miss_latency_hist_seqr::bucket_size          256                       (Unspecified)
system.caches.RequestType.LD.miss_latency_hist_seqr::max_bucket         2559                       (Unspecified)
system.caches.RequestType.LD.miss_latency_hist_seqr::samples      6144780                       (Unspecified)
system.caches.RequestType.LD.miss_latency_hist_seqr::mean    17.005093                       (Unspecified)
system.caches.RequestType.LD.miss_latency_hist_seqr::gmean    14.944321                       (Unspecified)
system.caches.RequestType.LD.miss_latency_hist_seqr::stdev    35.699787                       (Unspecified)
system.caches.RequestType.LD.miss_latency_hist_seqr |     6117914     99.56%     99.56% |       24280      0.40%     99.96% |        1215      0.02%     99.98% |         425      0.01%     99.98% |         191      0.00%     99.99% |         221      0.00%     99.99% |         217      0.00%     99.99% |         308      0.01%    100.00% |           6      0.00%    100.00% |           3      0.00%    100.00% (Unspecified)
system.caches.RequestType.LD.miss_latency_hist_seqr::total      6144780                       (Unspecified)
system.caches.RequestType.ST.latency_hist_seqr::bucket_size          256                       (Unspecified)
system.caches.RequestType.ST.latency_hist_seqr::max_bucket         2559                       (Unspecified)
system.caches.RequestType.ST.latency_hist_seqr::samples    385099652                       (Unspecified)
system.caches.RequestType.ST.latency_hist_seqr::mean     1.242471                       (Unspecified)
system.caches.RequestType.ST.latency_hist_seqr::gmean     1.045245                       (Unspecified)
system.caches.RequestType.ST.latency_hist_seqr::stdev     3.110399                       (Unspecified)
system.caches.RequestType.ST.latency_hist_seqr |   385091425    100.00%    100.00% |        7277      0.00%    100.00% |         699      0.00%    100.00% |          60      0.00%    100.00% |           4      0.00%    100.00% |           2      0.00%    100.00% |         105      0.00%    100.00% |          73      0.00%    100.00% |           5      0.00%    100.00% |           2      0.00%    100.00% (Unspecified)
system.caches.RequestType.ST.latency_hist_seqr::total    385099652                       (Unspecified)
system.caches.RequestType.ST.hit_latency_hist_seqr::bucket_size            1                       (Unspecified)
system.caches.RequestType.ST.hit_latency_hist_seqr::max_bucket            9                       (Unspecified)
system.caches.RequestType.ST.hit_latency_hist_seqr::samples    378836716                       (Unspecified)
system.caches.RequestType.ST.hit_latency_hist_seqr::mean            1                       (Unspecified)
system.caches.RequestType.ST.hit_latency_hist_seqr::gmean            1                       (Unspecified)
system.caches.RequestType.ST.hit_latency_hist_seqr |           0      0.00%      0.00% |   378836716    100.00%    100.00% |           0      0.00%    100.00% |           0      0.00%    100.00% |           0      0.00%    100.00% |           0      0.00%    100.00% |           0      0.00%    100.00% |           0      0.00%    100.00% |           0      0.00%    100.00% |           0      0.00%    100.00% (Unspecified)
system.caches.RequestType.ST.hit_latency_hist_seqr::total    378836716                       (Unspecified)
system.caches.RequestType.ST.miss_latency_hist_seqr::bucket_size          256                       (Unspecified)
system.caches.RequestType.ST.miss_latency_hist_seqr::max_bucket         2559                       (Unspecified)
system.caches.RequestType.ST.miss_latency_hist_seqr::samples      6262936                       (Unspecified)
system.caches.RequestType.ST.miss_latency_hist_seqr::mean    15.909199                       (Unspecified)
system.caches.RequestType.ST.miss_latency_hist_seqr::gmean    15.194917                       (Unspecified)
system.caches.RequestType.ST.miss_latency_hist_seqr::stdev    19.396083                       (Unspecified)
system.caches.RequestType.ST.miss_latency_hist_seqr |     6254709     99.87%     99.87% |        7277      0.12%     99.98% |         699      0.01%    100.00% |          60      0.00%    100.00% |           4      0.00%    100.00% |           2      0.00%    100.00% |         105      0.00%    100.00% |          73      0.00%    100.00% |           5      0.00%    100.00% |           2      0.00%    100.00% (Unspecified)
system.caches.RequestType.ST.miss_latency_hist_seqr::total      6262936                       (Unspecified)
system.caches.RequestType.IFETCH.latency_hist_seqr::bucket_size          256                       (Unspecified)
system.caches.RequestType.IFETCH.latency_hist_seqr::max_bucket         2559                       (Unspecified)
system.caches.RequestType.IFETCH.latency_hist_seqr::samples   6609020870                       (Unspecified)
system.caches.RequestType.IFETCH.latency_hist_seqr::mean     1.000497                       (Unspecified)
system.caches.RequestType.IFETCH.latency_hist_seqr::gmean     1.000071                       (Unspecified)
system.caches.RequestType.IFETCH.latency_hist_seqr::stdev     0.330742                       (Unspecified)
system.caches.RequestType.IFETCH.latency_hist_seqr |  6609018686    100.00%    100.00% |        1515      0.00%    100.00% |         596      0.00%    100.00% |          27      0.00%    100.00% |           3      0.00%    100.00% |           1      0.00%    100.00% |          11      0.00%    100.00% |          28      0.00%    100.00% |           3      0.00%    100.00% |           0      0.00%    100.00% (Unspecified)
system.caches.RequestType.IFETCH.latency_hist_seqr::total   6609020870                       (Unspecified)
system.caches.RequestType.IFETCH.hit_latency_hist_seqr::bucket_size            1                       (Unspecified)
system.caches.RequestType.IFETCH.hit_latency_hist_seqr::max_bucket            9                       (Unspecified)
system.caches.RequestType.IFETCH.hit_latency_hist_seqr::samples   6608841019                       (Unspecified)
system.caches.RequestType.IFETCH.hit_latency_hist_seqr::mean            1                       (Unspecified)
system.caches.RequestType.IFETCH.hit_latency_hist_seqr::gmean            1                       (Unspecified)
system.caches.RequestType.IFETCH.hit_latency_hist_seqr |           0      0.00%      0.00% |  6608841019    100.00%    100.00% |           0      0.00%    100.00% |           0      0.00%    100.00% |           0      0.00%    100.00% |           0      0.00%    100.00% |           0      0.00%    100.00% |           0      0.00%    100.00% |           0      0.00%    100.00% |           0      0.00%    100.00% (Unspecified)
system.caches.RequestType.IFETCH.hit_latency_hist_seqr::total   6608841019                       (Unspecified)
system.caches.RequestType.IFETCH.miss_latency_hist_seqr::bucket_size          256                       (Unspecified)
system.caches.RequestType.IFETCH.miss_latency_hist_seqr::max_bucket         2559                       (Unspecified)
system.caches.RequestType.IFETCH.miss_latency_hist_seqr::samples       179851                       (Unspecified)
system.caches.RequestType.IFETCH.miss_latency_hist_seqr::mean    19.246821                       (Unspecified)
system.caches.RequestType.IFETCH.miss_latency_hist_seqr::gmean    13.593593                       (Unspecified)
system.caches.RequestType.IFETCH.miss_latency_hist_seqr::stdev    60.719570                       (Unspecified)
system.caches.RequestType.IFETCH.miss_latency_hist_seqr |      177667     98.79%     98.79% |        1515      0.84%     99.63% |         596      0.33%     99.96% |          27      0.02%     99.97% |           3      0.00%     99.98% |           1      0.00%     99.98% |          11      0.01%     99.98% |          28      0.02%    100.00% |           3      0.00%    100.00% |           0      0.00%    100.00% (Unspecified)
system.caches.RequestType.IFETCH.miss_latency_hist_seqr::total       179851                       (Unspecified)
system.caches.RequestType.RMW_Read.latency_hist_seqr::bucket_size          256                       (Unspecified)
system.caches.RequestType.RMW_Read.latency_hist_seqr::max_bucket         2559                       (Unspecified)
system.caches.RequestType.RMW_Read.latency_hist_seqr::samples       178225                       (Unspecified)
system.caches.RequestType.RMW_Read.latency_hist_seqr::mean     2.288551                       (Unspecified)
system.caches.RequestType.RMW_Read.latency_hist_seqr::gmean     1.216048                       (Unspecified)
system.caches.RequestType.RMW_Read.latency_hist_seqr::stdev    11.036246                       (Unspecified)
system.caches.RequestType.RMW_Read.latency_hist_seqr |      178168     99.97%     99.97% |          30      0.02%     99.98% |          22      0.01%    100.00% |           4      0.00%    100.00% |           0      0.00%    100.00% |           1      0.00%    100.00% |           0      0.00%    100.00% |           0      0.00%    100.00% |           0      0.00%    100.00% |           0      0.00%    100.00% (Unspecified)
system.caches.RequestType.RMW_Read.latency_hist_seqr::total       178225                       (Unspecified)
system.caches.RequestType.RMW_Read.hit_latency_hist_seqr::bucket_size            1                       (Unspecified)
system.caches.RequestType.RMW_Read.hit_latency_hist_seqr::max_bucket            9                       (Unspecified)
system.caches.RequestType.RMW_Read.hit_latency_hist_seqr::samples       166057                       (Unspecified)
system.caches.RequestType.RMW_Read.hit_latency_hist_seqr::mean            1                       (Unspecified)
system.caches.RequestType.RMW_Read.hit_latency_hist_seqr::gmean            1                       (Unspecified)
system.caches.RequestType.RMW_Read.hit_latency_hist_seqr |           0      0.00%      0.00% |      166057    100.00%    100.00% |           0      0.00%    100.00% |           0      0.00%    100.00% |           0      0.00%    100.00% |           0      0.00%    100.00% |           0      0.00%    100.00% |           0      0.00%    100.00% |           0      0.00%    100.00% |           0      0.00%    100.00% (Unspecified)
system.caches.RequestType.RMW_Read.hit_latency_hist_seqr::total       166057                       (Unspecified)
system.caches.RequestType.RMW_Read.miss_latency_hist_seqr::bucket_size          256                       (Unspecified)
system.caches.RequestType.RMW_Read.miss_latency_hist_seqr::max_bucket         2559                       (Unspecified)
system.caches.RequestType.RMW_Read.miss_latency_hist_seqr::samples        12168                       (Unspecified)
system.caches.RequestType.RMW_Read.miss_latency_hist_seqr::mean    19.873439                       (Unspecified)
system.caches.RequestType.RMW_Read.miss_latency_hist_seqr::gmean    17.550010                       (Unspecified)
system.caches.RequestType.RMW_Read.miss_latency_hist_seqr::stdev    38.107888                       (Unspecified)
system.caches.RequestType.RMW_Read.miss_latency_hist_seqr |       12111     99.53%     99.53% |          30      0.25%     99.78% |          22      0.18%     99.96% |           4      0.03%     99.99% |           0      0.00%     99.99% |           1      0.01%    100.00% |           0      0.00%    100.00% |           0      0.00%    100.00% |           0      0.00%    100.00% |           0      0.00%    100.00% (Unspecified)
system.caches.RequestType.RMW_Read.miss_latency_hist_seqr::total        12168                       (Unspecified)
system.caches.RequestType.Locked_RMW_Read.latency_hist_seqr::bucket_size          256                       (Unspecified)
system.caches.RequestType.Locked_RMW_Read.latency_hist_seqr::max_bucket         2559                       (Unspecified)
system.caches.RequestType.Locked_RMW_Read.latency_hist_seqr::samples        34720                       (Unspecified)
system.caches.RequestType.Locked_RMW_Read.latency_hist_seqr::mean     2.621803                       (Unspecified)
system.caches.RequestType.Locked_RMW_Read.latency_hist_seqr::gmean     1.143015                       (Unspecified)
system.caches.RequestType.Locked_RMW_Read.latency_hist_seqr::stdev    25.879691                       (Unspecified)
system.caches.RequestType.Locked_RMW_Read.latency_hist_seqr |       34664     99.84%     99.84% |          30      0.09%     99.93% |          22      0.06%     99.99% |           3      0.01%    100.00% |           0      0.00%    100.00% |           0      0.00%    100.00% |           0      0.00%    100.00% |           0      0.00%    100.00% |           0      0.00%    100.00% |           1      0.00%    100.00% (Unspecified)
system.caches.RequestType.Locked_RMW_Read.latency_hist_seqr::total        34720                       (Unspecified)
system.caches.RequestType.Locked_RMW_Read.hit_latency_hist_seqr::bucket_size            1                       (Unspecified)
[...]
system.timingCpu0.exec_context.thread_0.statExecutedInstType::SimdFloatMultAcc            0      0.00%     83.99% # Class of executed instruction. (Count)
system.timingCpu0.exec_context.thread_0.statExecutedInstType::SimdFloatSqrt      9817441      0.24%     84.23% # Class of executed instruction. (Count)
system.timingCpu0.exec_context.thread_0.statExecutedInstType::SimdReduceAdd            0      0.00%     84.23% # Class of executed instruction. (Count)
system.timingCpu0.exec_context.thread_0.statExecutedInstType::SimdReduceAlu            0      0.00%     84.23% # Class of executed instruction. (Count)
system.timingCpu0.exec_context.thread_0.statExecutedInstType::SimdReduceCmp            0      0.00%     84.23% # Class of executed instruction. (Count)
system.timingCpu0.exec_context.thread_0.statExecutedInstType::SimdFloatReduceAdd            0      0.00%     84.23% # Class of executed instruction. (Count)
system.timingCpu0.exec_context.thread_0.statExecutedInstType::SimdFloatReduceCmp            0      0.00%     84.23% # Class of executed instruction. (Count)
system.timingCpu0.exec_context.thread_0.statExecutedInstType::SimdAes            0      0.00%     84.23% # Class of executed instruction. (Count)
system.timingCpu0.exec_context.thread_0.statExecutedInstType::SimdAesMix            0      0.00%     84.23% # Class of executed instruction. (Count)
system.timingCpu0.exec_context.thread_0.statExecutedInstType::SimdSha1Hash            0      0.00%     84.23% # Class of executed instruction. (Count)
system.timingCpu0.exec_context.thread_0.statExecutedInstType::SimdSha1Hash2            0      0.00%     84.23% # Class of executed instruction. (Count)
system.timingCpu0.exec_context.thread_0.statExecutedInstType::SimdSha256Hash            0      0.00%     84.23% # Class of executed instruction. (Count)
system.timingCpu0.exec_context.thread_0.statExecutedInstType::SimdSha256Hash2            0      0.00%     84.23% # Class of executed instruction. (Count)
system.timingCpu0.exec_context.thread_0.statExecutedInstType::SimdShaSigma2            0      0.00%     84.23% # Class of executed instruction. (Count)
system.timingCpu0.exec_context.thread_0.statExecutedInstType::SimdShaSigma3            0      0.00%     84.23% # Class of executed instruction. (Count)
system.timingCpu0.exec_context.thread_0.statExecutedInstType::SimdPredAlu            0      0.00%     84.23% # Class of executed instruction. (Count)
system.timingCpu0.exec_context.thread_0.statExecutedInstType::MemRead    119524847      2.92%     87.15% # Class of executed instruction. (Count)
system.timingCpu0.exec_context.thread_0.statExecutedInstType::MemWrite     89159263      2.18%     89.33% # Class of executed instruction. (Count)
system.timingCpu0.exec_context.thread_0.statExecutedInstType::FloatMemRead    333381772      8.14%     97.47% # Class of executed instruction. (Count)
system.timingCpu0.exec_context.thread_0.statExecutedInstType::FloatMemWrite    103552289      2.53%    100.00% # Class of executed instruction. (Count)
system.timingCpu0.exec_context.thread_0.statExecutedInstType::IprAccess            0      0.00%    100.00% # Class of executed instruction. (Count)
system.timingCpu0.exec_context.thread_0.statExecutedInstType::InstPrefetch            0      0.00%    100.00% # Class of executed instruction. (Count)
system.timingCpu0.exec_context.thread_0.statExecutedInstType::total   4094106296                       # Class of executed instruction. (Count)
system.timingCpu0.mmu.dtb.rdAccesses        453015183                       # TLB accesses on read requests (Count)
system.timingCpu0.mmu.dtb.wrAccesses        192762824                       # TLB accesses on write requests (Count)
system.timingCpu0.mmu.dtb.rdMisses             108564                       # TLB misses on read requests (Count)
system.timingCpu0.mmu.dtb.wrMisses              51275                       # TLB misses on write requests (Count)
system.timingCpu0.mmu.dtb.walker.power_state.pwrStateResidencyTicks::UNDEFINED 18925298861750                       # Cumulative time (in ticks) in various power states (Tick)
system.timingCpu0.mmu.itb.rdAccesses                0                       # TLB accesses on read requests (Count)
system.timingCpu0.mmu.itb.wrAccesses       3304443955                       # TLB accesses on write requests (Count)
system.timingCpu0.mmu.itb.rdMisses                  0                       # TLB misses on read requests (Count)
system.timingCpu0.mmu.itb.wrMisses              13184                       # TLB misses on write requests (Count)
system.timingCpu0.mmu.itb.walker.power_state.pwrStateResidencyTicks::UNDEFINED 18925298861750                       # Cumulative time (in ticks) in various power states (Tick)
system.timingCpu0.power_state.pwrStateResidencyTicks::OFF 18925298861750                       # Cumulative time (in ticks) in various power states (Tick)
system.timingCpu0.thread_0.numInsts                 0                       # Number of Instructions committed (Count)
system.timingCpu0.thread_0.numOps                   0                       # Number of Ops committed (Count)
system.timingCpu0.thread_0.numMemRefs               0                       # Number of Memory References (Count)
system.timingCpu1.numCycles                7999999999                       # Number of cpu cycles simulated (Cycle)
system.timingCpu1.numWorkItemsStarted               0                       # Number of work items this cpu started (Count)
system.timingCpu1.numWorkItemsCompleted             0                       # Number of work items this cpu completed (Count)
system.timingCpu1.exec_context.thread_0.numInsts   2298502038                       # Number of instructions committed (Count)
system.timingCpu1.exec_context.thread_0.numOps   4092753499                       # Number of ops (including micro ops) committed (Count)
system.timingCpu1.exec_context.thread_0.numIntAluAccesses   2407034777                       # Number of integer alu accesses (Count)
system.timingCpu1.exec_context.thread_0.numFpAluAccesses   2224618036                       # Number of float alu accesses (Count)
system.timingCpu1.exec_context.thread_0.numVecAluAccesses            0                       # Number of vector alu accesses (Count)
system.timingCpu1.exec_context.thread_0.numCallsReturns     19985130                       # Number of times a function call or return occured (Count)
system.timingCpu1.exec_context.thread_0.numCondCtrlInsts    158593421                       # Number of instructions that are conditional controls (Count)
system.timingCpu1.exec_context.thread_0.numIntInsts   2407034777                       # Number of integer instructions (Count)
system.timingCpu1.exec_context.thread_0.numFpInsts   2224618036                       # Number of float instructions (Count)
system.timingCpu1.exec_context.thread_0.numVecInsts            0                       # Number of vector instructions (Count)
system.timingCpu1.exec_context.thread_0.numIntRegReads   2734699748                       # Number of times the integer registers were read (Count)
system.timingCpu1.exec_context.thread_0.numIntRegWrites   1549890293                       # Number of times the integer registers were written (Count)
system.timingCpu1.exec_context.thread_0.numFpRegReads   3726474011                       # Number of times the floating registers were read (Count)
system.timingCpu1.exec_context.thread_0.numFpRegWrites   1991555983                       # Number of times the floating registers were written (Count)
system.timingCpu1.exec_context.thread_0.numVecRegReads            0                       # Number of times the vector registers were read (Count)
system.timingCpu1.exec_context.thread_0.numVecRegWrites            0                       # Number of times the vector registers were written (Count)
system.timingCpu1.exec_context.thread_0.numVecPredRegReads            0                       # Number of times the predicate registers were read (Count)
system.timingCpu1.exec_context.thread_0.numVecPredRegWrites            0                       # Number of times the predicate registers were written (Count)
system.timingCpu1.exec_context.thread_0.numCCRegReads   1115951290                       # Number of times the CC registers were read (Count)
system.timingCpu1.exec_context.thread_0.numCCRegWrites    824766667                       # Number of times the CC registers were written (Count)
system.timingCpu1.exec_context.thread_0.numMiscRegReads   1247507869                       # Number of times the Misc registers were read (Count)
system.timingCpu1.exec_context.thread_0.numMiscRegWrites        76113                       # Number of times the Misc registers were written (Count)
system.timingCpu1.exec_context.thread_0.numMemRefs    645032327                       # Number of memory refs (Count)
system.timingCpu1.exec_context.thread_0.numLoadInsts    452604786                       # Number of load instructions (Count)
system.timingCpu1.exec_context.thread_0.numStoreInsts    192427541                       # Number of store instructions (Count)
system.timingCpu1.exec_context.thread_0.numIdleCycles            0                       # Number of idle cycles (Cycle)
system.timingCpu1.exec_context.thread_0.numBusyCycles   7999999999                       # Number of busy cycles (Cycle)
system.timingCpu1.exec_context.thread_0.notIdleFraction            1                       # Percentage of non-idle cycles (Ratio)
system.timingCpu1.exec_context.thread_0.idleFraction            0                       # Percentage of idle cycles (Ratio)
system.timingCpu1.exec_context.thread_0.numBranches    220200728                       # Number of branches fetched (Count)
system.timingCpu1.exec_context.thread_0.statExecutedInstType::No_OpClass        10811      0.00%      0.00% # Class of executed instruction. (Count)
system.timingCpu1.exec_context.thread_0.statExecutedInstType::IntAlu   2132923732     52.11%     52.11% # Class of executed instruction. (Count)
system.timingCpu1.exec_context.thread_0.statExecutedInstType::IntMult     25079555      0.61%     52.73% # Class of executed instruction. (Count)
system.timingCpu1.exec_context.thread_0.statExecutedInstType::IntDiv        91304      0.00%     52.73% # Class of executed instruction. (Count)
system.timingCpu1.exec_context.thread_0.statExecutedInstType::FloatAdd    190191245      4.65%     57.38% # Class of executed instruction. (Count)
system.timingCpu1.exec_context.thread_0.statExecutedInstType::FloatCmp            0      0.00%     57.38% # Class of executed instruction. (Count)
system.timingCpu1.exec_context.thread_0.statExecutedInstType::FloatCvt           80      0.00%     57.38% # Class of executed instruction. (Count)
system.timingCpu1.exec_context.thread_0.statExecutedInstType::FloatMult            0      0.00%     57.38% # Class of executed instruction. (Count)
system.timingCpu1.exec_context.thread_0.statExecutedInstType::FloatMultAcc            0      0.00%     57.38% # Class of executed instruction. (Count)
system.timingCpu1.exec_context.thread_0.statExecutedInstType::FloatDiv            0      0.00%     57.38% # Class of executed instruction. (Count)
system.timingCpu1.exec_context.thread_0.statExecutedInstType::FloatMisc            0      0.00%     57.38% # Class of executed instruction. (Count)
system.timingCpu1.exec_context.thread_0.statExecutedInstType::FloatSqrt            0      0.00%     57.38% # Class of executed instruction. (Count)
system.timingCpu1.exec_context.thread_0.statExecutedInstType::SimdAdd            0      0.00%     57.38% # Class of executed instruction. (Count)
system.timingCpu1.exec_context.thread_0.statExecutedInstType::SimdAddAcc            0      0.00%     57.38% # Class of executed instruction. (Count)
system.timingCpu1.exec_context.thread_0.statExecutedInstType::SimdAlu    312913882      7.65%     65.02% # Class of executed instruction. (Count)
system.timingCpu1.exec_context.thread_0.statExecutedInstType::SimdCmp            0      0.00%     65.02% # Class of executed instruction. (Count)
system.timingCpu1.exec_context.thread_0.statExecutedInstType::SimdCvt            0      0.00%     65.02% # Class of executed instruction. (Count)
system.timingCpu1.exec_context.thread_0.statExecutedInstType::SimdMisc    102118097      2.50%     67.52% # Class of executed instruction. (Count)
system.timingCpu1.exec_context.thread_0.statExecutedInstType::SimdMult            0      0.00%     67.52% # Class of executed instruction. (Count)
system.timingCpu1.exec_context.thread_0.statExecutedInstType::SimdMultAcc            0      0.00%     67.52% # Class of executed instruction. (Count)
system.timingCpu1.exec_context.thread_0.statExecutedInstType::SimdShift            0      0.00%     67.52% # Class of executed instruction. (Count)
system.timingCpu1.exec_context.thread_0.statExecutedInstType::SimdShiftAcc            0      0.00%     67.52% # Class of executed instruction. (Count)
system.timingCpu1.exec_context.thread_0.statExecutedInstType::SimdDiv            0      0.00%     67.52% # Class of executed instruction. (Count)
system.timingCpu1.exec_context.thread_0.statExecutedInstType::SimdSqrt            0      0.00%     67.52% # Class of executed instruction. (Count)
system.timingCpu1.exec_context.thread_0.statExecutedInstType::SimdFloatAdd    329503668      8.05%     75.57% # Class of executed instruction. (Count)
system.timingCpu1.exec_context.thread_0.statExecutedInstType::SimdFloatAlu            0      0.00%     75.57% # Class of executed instruction. (Count)
system.timingCpu1.exec_context.thread_0.statExecutedInstType::SimdFloatCmp            0      0.00%     75.57% # Class of executed instruction. (Count)
system.timingCpu1.exec_context.thread_0.statExecutedInstType::SimdFloatCvt    149305394      3.65%     79.22% # Class of executed instruction. (Count)
system.timingCpu1.exec_context.thread_0.statExecutedInstType::SimdFloatDiv      9818854      0.24%     79.46% # Class of executed instruction. (Count)
system.timingCpu1.exec_context.thread_0.statExecutedInstType::SimdFloatMisc            0      0.00%     79.46% # Class of executed instruction. (Count)
system.timingCpu1.exec_context.thread_0.statExecutedInstType::SimdFloatMult    185945696      4.54%     84.00% # Class of executed instruction. (Count)
system.timingCpu1.exec_context.thread_0.statExecutedInstType::SimdFloatMultAcc            0      0.00%     84.00% # Class of executed instruction. (Count)
system.timingCpu1.exec_context.thread_0.statExecutedInstType::SimdFloatSqrt      9818854      0.24%     84.24% # Class of executed instruction. (Count)
system.timingCpu1.exec_context.thread_0.statExecutedInstType::SimdReduceAdd            0      0.00%     84.24% # Class of executed instruction. (Count)
system.timingCpu1.exec_context.thread_0.statExecutedInstType::SimdReduceAlu            0      0.00%     84.24% # Class of executed instruction. (Count)
system.timingCpu1.exec_context.thread_0.statExecutedInstType::SimdReduceCmp            0      0.00%     84.24% # Class of executed instruction. (Count)
system.timingCpu1.exec_context.thread_0.statExecutedInstType::SimdFloatReduceAdd            0      0.00%     84.24% # Class of executed instruction. (Count)
system.timingCpu1.exec_context.thread_0.statExecutedInstType::SimdFloatReduceCmp            0      0.00%     84.24% # Class of executed instruction. (Count)
system.timingCpu1.exec_context.thread_0.statExecutedInstType::SimdAes            0      0.00%     84.24% # Class of executed instruction. (Count)
system.timingCpu1.exec_context.thread_0.statExecutedInstType::SimdAesMix            0      0.00%     84.24% # Class of executed instruction. (Count)
system.timingCpu1.exec_context.thread_0.statExecutedInstType::SimdSha1Hash            0      0.00%     84.24% # Class of executed instruction. (Count)
system.timingCpu1.exec_context.thread_0.statExecutedInstType::SimdSha1Hash2            0      0.00%     84.24% # Class of executed instruction. (Count)
system.timingCpu1.exec_context.thread_0.statExecutedInstType::SimdSha256Hash            0      0.00%     84.24% # Class of executed instruction. (Count)
system.timingCpu1.exec_context.thread_0.statExecutedInstType::SimdSha256Hash2            0      0.00%     84.24% # Class of executed instruction. (Count)
system.timingCpu1.exec_context.thread_0.statExecutedInstType::SimdShaSigma2            0      0.00%     84.24% # Class of executed instruction. (Count)
system.timingCpu1.exec_context.thread_0.statExecutedInstType::SimdShaSigma3            0      0.00%     84.24% # Class of executed instruction. (Count)
system.timingCpu1.exec_context.thread_0.statExecutedInstType::SimdPredAlu            0      0.00%     84.24% # Class of executed instruction. (Count)
system.timingCpu1.exec_context.thread_0.statExecutedInstType::MemRead    119178788      2.91%     87.15% # Class of executed instruction. (Count)
system.timingCpu1.exec_context.thread_0.statExecutedInstType::MemWrite     88839579      2.17%     89.32% # Class of executed instruction. (Count)
system.timingCpu1.exec_context.thread_0.statExecutedInstType::FloatMemRead    333425998      8.15%     97.47% # Class of executed instruction. (Count)
system.timingCpu1.exec_context.thread_0.statExecutedInstType::FloatMemWrite    103587962      2.53%    100.00% # Class of executed instruction. (Count)
system.timingCpu1.exec_context.thread_0.statExecutedInstType::IprAccess            0      0.00%    100.00% # Class of executed instruction. (Count)
system.timingCpu1.exec_context.thread_0.statExecutedInstType::InstPrefetch            0      0.00%    100.00% # Class of executed instruction. (Count)
system.timingCpu1.exec_context.thread_0.statExecutedInstType::total   4092753499                       # Class of executed instruction. (Count)
system.timingCpu1.mmu.dtb.rdAccesses        452713542                       # TLB accesses on read requests (Count)
system.timingCpu1.mmu.dtb.wrAccesses        192483512                       # TLB accesses on write requests (Count)
system.timingCpu1.mmu.dtb.rdMisses             110412                       # TLB misses on read requests (Count)
system.timingCpu1.mmu.dtb.wrMisses              56466                       # TLB misses on write requests (Count)
system.timingCpu1.mmu.dtb.walker.power_state.pwrStateResidencyTicks::UNDEFINED 18925298861750                       # Cumulative time (in ticks) in various power states (Tick)
system.timingCpu1.mmu.itb.rdAccesses                0                       # TLB accesses on read requests (Count)
system.timingCpu1.mmu.itb.wrAccesses       3304603272                       # TLB accesses on write requests (Count)
system.timingCpu1.mmu.itb.rdMisses                  0                       # TLB misses on read requests (Count)
system.timingCpu1.mmu.itb.wrMisses              13173                       # TLB misses on write requests (Count)
system.timingCpu1.mmu.itb.walker.power_state.pwrStateResidencyTicks::UNDEFINED 18925298861750                       # Cumulative time (in ticks) in various power states (Tick)
system.timingCpu1.power_state.pwrStateResidencyTicks::OFF 18925298861750                       # Cumulative time (in ticks) in various power states (Tick)
system.timingCpu1.thread_0.numInsts                 0                       # Number of Instructions committed (Count)
system.timingCpu1.thread_0.numOps                   0                       # Number of Ops committed (Count)
system.timingCpu1.thread_0.numMemRefs               0                       # Number of Memory References (Count)
system.workload.inst.arm                            0                       # number of arm instructions executed (Count)
system.workload.inst.quiesce                        0                       # number of quiesce instructions executed (Count)

---------- End Simulation Statistics   ----------
