
---------- Begin Simulation Statistics ----------
simSeconds                                   1.970095                       # Number of seconds simulated (Second)
simTicks                                 1970094686001                       # Number of ticks simulated (Tick)
finalTick                                160293367505501                       # Number of ticks from beginning of simulation (restored from checkpoints and never reset) (Tick)
simFreq                                  1000000000000                       # The number of ticks per simulated second ((Tick/Second))
hostSeconds                                  10472.22                       # Real time elapsed on the host (Second)
hostTickRate                                188125724                       # The number of ticks simulated per host second (ticks/s) ((Tick/Second))
hostMemory                                    7840144                       # Number of bytes of host memory used (Byte)
simInsts                                  39825734309                       # Number of instructions simulated (Count)
simOps                                    41250025124                       # Number of ops (including micro ops) simulated (Count)
hostInstRate                                  3802987                       # Simulator instruction rate (inst/s) ((Count/Second))
hostOpRate                                    3938994                       # Simulator op (including micro ops) rate (op/s) ((Count/Second))
system.work_item_type0::samples                     1                       # Run time stat forwork_item_type0 (Unspecified)
system.work_item_type0::mean             1970094686001                       # Run time stat forwork_item_type0 (Unspecified)
system.work_item_type0::gmean            1970094686001.001953                       # Run time stat forwork_item_type0 (Unspecified)
system.work_item_type0::stdev                     nan                       # Run time stat forwork_item_type0 (Unspecified)
system.work_item_type0::0-1.37439e+11               0      0.00%      0.00% # Run time stat forwork_item_type0 (Unspecified)
system.work_item_type0::1.37439e+11-2.74878e+11            0      0.00%      0.00% # Run time stat forwork_item_type0 (Unspecified)
system.work_item_type0::2.74878e+11-4.12317e+11            0      0.00%      0.00% # Run time stat forwork_item_type0 (Unspecified)
system.work_item_type0::4.12317e+11-5.49756e+11            0      0.00%      0.00% # Run time stat forwork_item_type0 (Unspecified)
system.work_item_type0::5.49756e+11-6.87195e+11            0      0.00%      0.00% # Run time stat forwork_item_type0 (Unspecified)
system.work_item_type0::6.87195e+11-8.24634e+11            0      0.00%      0.00% # Run time stat forwork_item_type0 (Unspecified)
system.work_item_type0::8.24634e+11-9.62073e+11            0      0.00%      0.00% # Run time stat forwork_item_type0 (Unspecified)
system.work_item_type0::9.62073e+11-1.09951e+12            0      0.00%      0.00% # Run time stat forwork_item_type0 (Unspecified)
system.work_item_type0::1.09951e+12-1.23695e+12            0      0.00%      0.00% # Run time stat forwork_item_type0 (Unspecified)
system.work_item_type0::1.23695e+12-1.37439e+12            0      0.00%      0.00% # Run time stat forwork_item_type0 (Unspecified)
system.work_item_type0::1.37439e+12-1.51183e+12            0      0.00%      0.00% # Run time stat forwork_item_type0 (Unspecified)
system.work_item_type0::1.51183e+12-1.64927e+12            0      0.00%      0.00% # Run time stat forwork_item_type0 (Unspecified)
system.work_item_type0::1.64927e+12-1.78671e+12            0      0.00%      0.00% # Run time stat forwork_item_type0 (Unspecified)
system.work_item_type0::1.78671e+12-1.92415e+12            0      0.00%      0.00% # Run time stat forwork_item_type0 (Unspecified)
system.work_item_type0::1.92415e+12-2.06158e+12            1    100.00%    100.00% # Run time stat forwork_item_type0 (Unspecified)
system.work_item_type0::2.06158e+12-2.19902e+12            0      0.00%    100.00% # Run time stat forwork_item_type0 (Unspecified)
system.work_item_type0::2.19902e+12-2.33646e+12            0      0.00%    100.00% # Run time stat forwork_item_type0 (Unspecified)
system.work_item_type0::2.33646e+12-2.4739e+12            0      0.00%    100.00% # Run time stat forwork_item_type0 (Unspecified)
system.work_item_type0::2.4739e+12-2.61134e+12            0      0.00%    100.00% # Run time stat forwork_item_type0 (Unspecified)
system.work_item_type0::2.61134e+12-2.74878e+12            0      0.00%    100.00% # Run time stat forwork_item_type0 (Unspecified)
system.work_item_type0::total                       1                       # Run time stat forwork_item_type0 (Unspecified)
system.atomicCpu0.numCycles                         0                       # Number of cpu cycles simulated (Cycle)
system.atomicCpu0.numWorkItemsStarted               0                       # Number of work items this cpu started (Count)
system.atomicCpu0.numWorkItemsCompleted             0                       # Number of work items this cpu completed (Count)
system.atomicCpu0.exec_context.thread_0.numInsts            0                       # Number of instructions committed (Count)
system.atomicCpu0.exec_context.thread_0.numOps            0                       # Number of ops (including micro ops) committed (Count)
system.atomicCpu0.exec_context.thread_0.numIntAluAccesses            0                       # Number of integer alu accesses (Count)
system.atomicCpu0.exec_context.thread_0.numFpAluAccesses            0                       # Number of float alu accesses (Count)
system.atomicCpu0.exec_context.thread_0.numVecAluAccesses            0                       # Number of vector alu accesses (Count)
system.atomicCpu0.exec_context.thread_0.numCallsReturns            0                       # Number of times a function call or return occured (Count)
system.atomicCpu0.exec_context.thread_0.numCondCtrlInsts            0                       # Number of instructions that are conditional controls (Count)
system.atomicCpu0.exec_context.thread_0.numIntInsts            0                       # Number of integer instructions (Count)
system.atomicCpu0.exec_context.thread_0.numFpInsts            0                       # Number of float instructions (Count)
system.atomicCpu0.exec_context.thread_0.numVecInsts            0                       # Number of vector instructions (Count)
system.atomicCpu0.exec_context.thread_0.numIntRegReads            0                       # Number of times the integer registers were read (Count)
system.atomicCpu0.exec_context.thread_0.numIntRegWrites            0                       # Number of times the integer registers were written (Count)
system.atomicCpu0.exec_context.thread_0.numFpRegReads            0                       # Number of times the floating registers were read (Count)
system.atomicCpu0.exec_context.thread_0.numFpRegWrites            0                       # Number of times the floating registers were written (Count)
system.atomicCpu0.exec_context.thread_0.numVecRegReads            0                       # Number of times the vector registers were read (Count)
system.atomicCpu0.exec_context.thread_0.numVecRegWrites            0                       # Number of times the vector registers were written (Count)
system.atomicCpu0.exec_context.thread_0.numVecPredRegReads            0                       # Number of times the predicate registers were read (Count)
system.atomicCpu0.exec_context.thread_0.numVecPredRegWrites            0                       # Number of times the predicate registers were written (Count)
system.atomicCpu0.exec_context.thread_0.numMiscRegReads            0                       # Number of times the Misc registers were read (Count)
system.atomicCpu0.exec_context.thread_0.numMiscRegWrites            0                       # Number of times the Misc registers were written (Count)
system.atomicCpu0.exec_context.thread_0.numMemRefs            0                       # Number of memory refs (Count)
system.atomicCpu0.exec_context.thread_0.numLoadInsts            0                       # Number of load instructions (Count)
system.atomicCpu0.exec_context.thread_0.numStoreInsts            0                       # Number of store instructions (Count)
system.atomicCpu0.exec_context.thread_0.numIdleCycles            0                       # Number of idle cycles (Cycle)
system.atomicCpu0.exec_context.thread_0.numBusyCycles            0                       # Number of busy cycles (Cycle)
system.atomicCpu0.exec_context.thread_0.notIdleFraction            0                       # Percentage of non-idle cycles (Ratio)
system.atomicCpu0.exec_context.thread_0.idleFraction            1                       # Percentage of idle cycles (Ratio)
system.atomicCpu0.exec_context.thread_0.statExecutedInstType::No_OpClass            0                       # Class of executed instruction. (Count)
system.atomicCpu0.exec_context.thread_0.statExecutedInstType::IntAlu            0                       # Class of executed instruction. (Count)
system.atomicCpu0.exec_context.thread_0.statExecutedInstType::IntMult            0                       # Class of executed instruction. (Count)
system.atomicCpu0.exec_context.thread_0.statExecutedInstType::IntDiv            0                       # Class of executed instruction. (Count)
system.atomicCpu0.exec_context.thread_0.statExecutedInstType::FloatAdd            0                       # Class of executed instruction. (Count)
system.atomicCpu0.exec_context.thread_0.statExecutedInstType::FloatCmp            0                       # Class of executed instruction. (Count)
system.atomicCpu0.exec_context.thread_0.statExecutedInstType::FloatCvt            0                       # Class of executed instruction. (Count)
system.atomicCpu0.exec_context.thread_0.statExecutedInstType::FloatMult            0                       # Class of executed instruction. (Count)
system.atomicCpu0.exec_context.thread_0.statExecutedInstType::FloatMultAcc            0                       # Class of executed instruction. (Count)
system.atomicCpu0.exec_context.thread_0.statExecutedInstType::FloatDiv            0                       # Class of executed instruction. (Count)
system.atomicCpu0.exec_context.thread_0.statExecutedInstType::FloatMisc            0                       # Class of executed instruction. (Count)
system.atomicCpu0.exec_context.thread_0.statExecutedInstType::FloatSqrt            0                       # Class of executed instruction. (Count)
system.atomicCpu0.exec_context.thread_0.statExecutedInstType::SimdAdd            0                       # Class of executed instruction. (Count)
system.atomicCpu0.exec_context.thread_0.statExecutedInstType::SimdAddAcc            0                       # Class of executed instruction. (Count)
system.atomicCpu0.exec_context.thread_0.statExecutedInstType::SimdAlu            0                       # Class of executed instruction. (Count)
system.atomicCpu0.exec_context.thread_0.statExecutedInstType::SimdCmp            0                       # Class of executed instruction. (Count)
system.atomicCpu0.exec_context.thread_0.statExecutedInstType::SimdCvt            0                       # Class of executed instruction. (Count)
system.atomicCpu0.exec_context.thread_0.statExecutedInstType::SimdMisc            0                       # Class of executed instruction. (Count)
system.atomicCpu0.exec_context.thread_0.statExecutedInstType::SimdMult            0                       # Class of executed instruction. (Count)
system.atomicCpu0.exec_context.thread_0.statExecutedInstType::SimdMultAcc            0                       # Class of executed instruction. (Count)
system.atomicCpu0.exec_context.thread_0.statExecutedInstType::SimdShift            0                       # Class of executed instruction. (Count)
system.atomicCpu0.exec_context.thread_0.statExecutedInstType::SimdShiftAcc            0                       # Class of executed instruction. (Count)
system.atomicCpu0.exec_context.thread_0.statExecutedInstType::SimdDiv            0                       # Class of executed instruction. (Count)
system.atomicCpu0.exec_context.thread_0.statExecutedInstType::SimdSqrt            0                       # Class of executed instruction. (Count)
system.atomicCpu0.exec_context.thread_0.statExecutedInstType::SimdFloatAdd            0                       # Class of executed instruction. (Count)
system.atomicCpu0.exec_context.thread_0.statExecutedInstType::SimdFloatAlu            0                       # Class of executed instruction. (Count)
system.atomicCpu0.exec_context.thread_0.statExecutedInstType::SimdFloatCmp            0                       # Class of executed instruction. (Count)
system.atomicCpu0.exec_context.thread_0.statExecutedInstType::SimdFloatCvt            0                       # Class of executed instruction. (Count)
system.atomicCpu0.exec_context.thread_0.statExecutedInstType::SimdFloatDiv            0                       # Class of executed instruction. (Count)
system.atomicCpu0.exec_context.thread_0.statExecutedInstType::SimdFloatMisc            0                       # Class of executed instruction. (Count)
system.atomicCpu0.exec_context.thread_0.statExecutedInstType::SimdFloatMult            0                       # Class of executed instruction. (Count)
system.atomicCpu0.exec_context.thread_0.statExecutedInstType::SimdFloatMultAcc            0                       # Class of executed instruction. (Count)
system.atomicCpu0.exec_context.thread_0.statExecutedInstType::SimdFloatSqrt            0                       # Class of executed instruction. (Count)
system.atomicCpu0.exec_context.thread_0.statExecutedInstType::SimdReduceAdd            0                       # Class of executed instruction. (Count)
system.atomicCpu0.exec_context.thread_0.statExecutedInstType::SimdReduceAlu            0                       # Class of executed instruction. (Count)
system.atomicCpu0.exec_context.thread_0.statExecutedInstType::SimdReduceCmp            0                       # Class of executed instruction. (Count)
system.atomicCpu0.exec_context.thread_0.statExecutedInstType::SimdFloatReduceAdd            0                       # Class of executed instruction. (Count)
system.atomicCpu0.exec_context.thread_0.statExecutedInstType::SimdFloatReduceCmp            0                       # Class of executed instruction. (Count)
system.atomicCpu0.exec_context.thread_0.statExecutedInstType::SimdAes            0                       # Class of executed instruction. (Count)
system.atomicCpu0.exec_context.thread_0.statExecutedInstType::SimdAesMix            0                       # Class of executed instruction. (Count)
system.atomicCpu0.exec_context.thread_0.statExecutedInstType::SimdSha1Hash            0                       # Class of executed instruction. (Count)
system.atomicCpu0.exec_context.thread_0.statExecutedInstType::SimdSha1Hash2            0                       # Class of executed instruction. (Count)
system.atomicCpu0.exec_context.thread_0.statExecutedInstType::SimdSha256Hash            0                       # Class of executed instruction. (Count)
system.atomicCpu0.exec_context.thread_0.statExecutedInstType::SimdSha256Hash2            0                       # Class of executed instruction. (Count)
system.atomicCpu0.exec_context.thread_0.statExecutedInstType::SimdShaSigma2            0                       # Class of executed instruction. (Count)
system.atomicCpu0.exec_context.thread_0.statExecutedInstType::SimdShaSigma3            0                       # Class of executed instruction. (Count)
system.atomicCpu0.exec_context.thread_0.statExecutedInstType::SimdPredAlu            0                       # Class of executed instruction. (Count)
system.atomicCpu0.exec_context.thread_0.statExecutedInstType::MemRead            0                       # Class of executed instruction. (Count)
system.atomicCpu0.exec_context.thread_0.statExecutedInstType::MemWrite            0                       # Class of executed instruction. (Count)
system.atomicCpu0.exec_context.thread_0.statExecutedInstType::FloatMemRead            0                       # Class of executed instruction. (Count)
system.atomicCpu0.exec_context.thread_0.statExecutedInstType::FloatMemWrite            0                       # Class of executed instruction. (Count)
system.atomicCpu0.exec_context.thread_0.statExecutedInstType::IprAccess            0                       # Class of executed instruction. (Count)
system.atomicCpu0.exec_context.thread_0.statExecutedInstType::InstPrefetch            0                       # Class of executed instruction. (Count)
system.atomicCpu0.exec_context.thread_0.statExecutedInstType::total            0                       # Class of executed instruction. (Count)
system.atomicCpu0.mmu.dtb.rdAccesses                0                       # TLB accesses on read requests (Count)
system.atomicCpu0.mmu.dtb.wrAccesses                0                       # TLB accesses on write requests (Count)
system.atomicCpu0.mmu.dtb.rdMisses                  0                       # TLB misses on read requests (Count)
system.atomicCpu0.mmu.dtb.wrMisses                  0                       # TLB misses on write requests (Count)
system.atomicCpu0.mmu.dtb.walker.power_state.pwrStateResidencyTicks::UNDEFINED 160293367505501                       # Cumulative time (in ticks) in various power states (Tick)
system.atomicCpu0.mmu.itb.rdAccesses                0                       # TLB accesses on read requests (Count)
system.atomicCpu0.mmu.itb.wrAccesses                0                       # TLB accesses on write requests (Count)
system.atomicCpu0.mmu.itb.rdMisses                  0                       # TLB misses on read requests (Count)
system.atomicCpu0.mmu.itb.wrMisses                  0                       # TLB misses on write requests (Count)
system.atomicCpu0.mmu.itb.walker.power_state.pwrStateResidencyTicks::UNDEFINED 160293367505501                       # Cumulative time (in ticks) in various power states (Tick)
system.atomicCpu0.power_state.pwrStateResidencyTicks::OFF 160293367505501                       # Cumulative time (in ticks) in various power states (Tick)
system.atomicCpu0.thread_0.numInsts                 0                       # Number of Instructions committed (Count)
system.atomicCpu0.thread_0.numOps                   0                       # Number of Ops committed (Count)
system.atomicCpu0.thread_0.numMemRefs               0                       # Number of Memory References (Count)
system.atomicCpu1.numCycles                         0                       # Number of cpu cycles simulated (Cycle)
system.atomicCpu1.numWorkItemsStarted               0                       # Number of work items this cpu started (Count)
system.atomicCpu1.numWorkItemsCompleted             0                       # Number of work items this cpu completed (Count)
system.atomicCpu1.exec_context.thread_0.numInsts            0                       # Number of instructions committed (Count)
system.atomicCpu1.exec_context.thread_0.numOps            0                       # Number of ops (including micro ops) committed (Count)
system.atomicCpu1.exec_context.thread_0.numIntAluAccesses            0                       # Number of integer alu accesses (Count)
system.atomicCpu1.exec_context.thread_0.numFpAluAccesses            0                       # Number of float alu accesses (Count)
system.atomicCpu1.exec_context.thread_0.numVecAluAccesses            0                       # Number of vector alu accesses (Count)
system.atomicCpu1.exec_context.thread_0.numCallsReturns            0                       # Number of times a function call or return occured (Count)
system.atomicCpu1.exec_context.thread_0.numCondCtrlInsts            0                       # Number of instructions that are conditional controls (Count)
system.atomicCpu1.exec_context.thread_0.numIntInsts            0                       # Number of integer instructions (Count)
system.atomicCpu1.exec_context.thread_0.numFpInsts            0                       # Number of float instructions (Count)
system.atomicCpu1.exec_context.thread_0.numVecInsts            0                       # Number of vector instructions (Count)
system.atomicCpu1.exec_context.thread_0.numIntRegReads            0                       # Number of times the integer registers were read (Count)
system.atomicCpu1.exec_context.thread_0.numIntRegWrites            0                       # Number of times the integer registers were written (Count)
system.atomicCpu1.exec_context.thread_0.numFpRegReads            0                       # Number of times the floating registers were read (Count)
system.atomicCpu1.exec_context.thread_0.numFpRegWrites            0                       # Number of times the floating registers were written (Count)
system.atomicCpu1.exec_context.thread_0.numVecRegReads            0                       # Number of times the vector registers were read (Count)
system.atomicCpu1.exec_context.thread_0.numVecRegWrites            0                       # Number of times the vector registers were written (Count)
system.atomicCpu1.exec_context.thread_0.numVecPredRegReads            0                       # Number of times the predicate registers were read (Count)
system.atomicCpu1.exec_context.thread_0.numVecPredRegWrites            0                       # Number of times the predicate registers were written (Count)
system.atomicCpu1.exec_context.thread_0.numMiscRegReads            0                       # Number of times the Misc registers were read (Count)
system.atomicCpu1.exec_context.thread_0.numMiscRegWrites            0                       # Number of times the Misc registers were written (Count)
system.atomicCpu1.exec_context.thread_0.numMemRefs            0                       # Number of memory refs (Count)
system.atomicCpu1.exec_context.thread_0.numLoadInsts            0                       # Number of load instructions (Count)
system.atomicCpu1.exec_context.thread_0.numStoreInsts            0                       # Number of store instructions (Count)
system.atomicCpu1.exec_context.thread_0.numIdleCycles            0                       # Number of idle cycles (Cycle)
system.atomicCpu1.exec_context.thread_0.numBusyCycles            0                       # Number of busy cycles (Cycle)
system.atomicCpu1.exec_context.thread_0.notIdleFraction            0                       # Percentage of non-idle cycles (Ratio)
system.atomicCpu1.exec_context.thread_0.idleFraction            1                       # Percentage of idle cycles (Ratio)
system.atomicCpu1.exec_context.thread_0.statExecutedInstType::No_OpClass            0                       # Class of executed instruction. (Count)
system.atomicCpu1.exec_context.thread_0.statExecutedInstType::IntAlu            0                       # Class of executed instruction. (Count)
system.atomicCpu1.exec_context.thread_0.statExecutedInstType::IntMult            0                       # Class of executed instruction. (Count)
system.atomicCpu1.exec_context.thread_0.statExecutedInstType::IntDiv            0                       # Class of executed instruction. (Count)
system.atomicCpu1.exec_context.thread_0.statExecutedInstType::FloatAdd            0                       # Class of executed instruction. (Count)
system.atomicCpu1.exec_context.thread_0.statExecutedInstType::FloatCmp            0                       # Class of executed instruction. (Count)
system.atomicCpu1.exec_context.thread_0.statExecutedInstType::FloatCvt            0                       # Class of executed instruction. (Count)
system.atomicCpu1.exec_context.thread_0.statExecutedInstType::FloatMult            0                       # Class of executed instruction. (Count)
system.atomicCpu1.exec_context.thread_0.statExecutedInstType::FloatMultAcc            0                       # Class of executed instruction. (Count)
system.atomicCpu1.exec_context.thread_0.statExecutedInstType::FloatDiv            0                       # Class of executed instruction. (Count)
system.atomicCpu1.exec_context.thread_0.statExecutedInstType::FloatMisc            0                       # Class of executed instruction. (Count)
system.atomicCpu1.exec_context.thread_0.statExecutedInstType::FloatSqrt            0                       # Class of executed instruction. (Count)
system.atomicCpu1.exec_context.thread_0.statExecutedInstType::SimdAdd            0                       # Class of executed instruction. (Count)
system.atomicCpu1.exec_context.thread_0.statExecutedInstType::SimdAddAcc            0                       # Class of executed instruction. (Count)
system.atomicCpu1.exec_context.thread_0.statExecutedInstType::SimdAlu            0                       # Class of executed instruction. (Count)
system.atomicCpu1.exec_context.thread_0.statExecutedInstType::SimdCmp            0                       # Class of executed instruction. (Count)
system.atomicCpu1.exec_context.thread_0.statExecutedInstType::SimdCvt            0                       # Class of executed instruction. (Count)
system.atomicCpu1.exec_context.thread_0.statExecutedInstType::SimdMisc            0                       # Class of executed instruction. (Count)
system.atomicCpu1.exec_context.thread_0.statExecutedInstType::SimdMult            0                       # Class of executed instruction. (Count)
system.atomicCpu1.exec_context.thread_0.statExecutedInstType::SimdMultAcc            0                       # Class of executed instruction. (Count)
system.atomicCpu1.exec_context.thread_0.statExecutedInstType::SimdShift            0                       # Class of executed instruction. (Count)
system.atomicCpu1.exec_context.thread_0.statExecutedInstType::SimdShiftAcc            0                       # Class of executed instruction. (Count)
system.atomicCpu1.exec_context.thread_0.statExecutedInstType::SimdDiv            0                       # Class of executed instruction. (Count)
system.atomicCpu1.exec_context.thread_0.statExecutedInstType::SimdSqrt            0                       # Class of executed instruction. (Count)
system.atomicCpu1.exec_context.thread_0.statExecutedInstType::SimdFloatAdd            0                       # Class of executed instruction. (Count)
system.atomicCpu1.exec_context.thread_0.statExecutedInstType::SimdFloatAlu            0                       # Class of executed instruction. (Count)
system.atomicCpu1.exec_context.thread_0.statExecutedInstType::SimdFloatCmp            0                       # Class of executed instruction. (Count)
system.atomicCpu1.exec_context.thread_0.statExecutedInstType::SimdFloatCvt            0                       # Class of executed instruction. (Count)
system.atomicCpu1.exec_context.thread_0.statExecutedInstType::SimdFloatDiv            0                       # Class of executed instruction. (Count)
system.atomicCpu1.exec_context.thread_0.statExecutedInstType::SimdFloatMisc            0                       # Class of executed instruction. (Count)
system.atomicCpu1.exec_context.thread_0.statExecutedInstType::SimdFloatMult            0                       # Class of executed instruction. (Count)
system.atomicCpu1.exec_context.thread_0.statExecutedInstType::SimdFloatMultAcc            0                       # Class of executed instruction. (Count)
system.atomicCpu1.exec_context.thread_0.statExecutedInstType::SimdFloatSqrt            0                       # Class of executed instruction. (Count)
system.atomicCpu1.exec_context.thread_0.statExecutedInstType::SimdReduceAdd            0                       # Class of executed instruction. (Count)
system.atomicCpu1.exec_context.thread_0.statExecutedInstType::SimdReduceAlu            0                       # Class of executed instruction. (Count)
system.atomicCpu1.exec_context.thread_0.statExecutedInstType::SimdReduceCmp            0                       # Class of executed instruction. (Count)
system.atomicCpu1.exec_context.thread_0.statExecutedInstType::SimdFloatReduceAdd            0                       # Class of executed instruction. (Count)
system.atomicCpu1.exec_context.thread_0.statExecutedInstType::SimdFloatReduceCmp            0                       # Class of executed instruction. (Count)
system.atomicCpu1.exec_context.thread_0.statExecutedInstType::SimdAes            0                       # Class of executed instruction. (Count)
system.atomicCpu1.exec_context.thread_0.statExecutedInstType::SimdAesMix            0                       # Class of executed instruction. (Count)
system.atomicCpu1.exec_context.thread_0.statExecutedInstType::SimdSha1Hash            0                       # Class of executed instruction. (Count)
system.atomicCpu1.exec_context.thread_0.statExecutedInstType::SimdSha1Hash2            0                       # Class of executed instruction. (Count)
system.atomicCpu1.exec_context.thread_0.statExecutedInstType::SimdSha256Hash            0                       # Class of executed instruction. (Count)
system.atomicCpu1.exec_context.thread_0.statExecutedInstType::SimdSha256Hash2            0                       # Class of executed instruction. (Count)
system.atomicCpu1.exec_context.thread_0.statExecutedInstType::SimdShaSigma2            0                       # Class of executed instruction. (Count)
system.atomicCpu1.exec_context.thread_0.statExecutedInstType::SimdShaSigma3            0                       # Class of executed instruction. (Count)
system.atomicCpu1.exec_context.thread_0.statExecutedInstType::SimdPredAlu            0                       # Class of executed instruction. (Count)
system.atomicCpu1.exec_context.thread_0.statExecutedInstType::MemRead            0                       # Class of executed instruction. (Count)
system.atomicCpu1.exec_context.thread_0.statExecutedInstType::MemWrite            0                       # Class of executed instruction. (Count)
system.atomicCpu1.exec_context.thread_0.statExecutedInstType::FloatMemRead            0                       # Class of executed instruction. (Count)
system.atomicCpu1.exec_context.thread_0.statExecutedInstType::FloatMemWrite            0                       # Class of executed instruction. (Count)
system.atomicCpu1.exec_context.thread_0.statExecutedInstType::IprAccess            0                       # Class of executed instruction. (Count)
system.atomicCpu1.exec_context.thread_0.statExecutedInstType::InstPrefetch            0                       # Class of executed instruction. (Count)
system.atomicCpu1.exec_context.thread_0.statExecutedInstType::total            0                       # Class of executed instruction. (Count)
system.atomicCpu1.mmu.dtb.rdAccesses                0                       # TLB accesses on read requests (Count)
system.atomicCpu1.mmu.dtb.wrAccesses                0                       # TLB accesses on write requests (Count)
system.atomicCpu1.mmu.dtb.rdMisses                  0                       # TLB misses on read requests (Count)
system.atomicCpu1.mmu.dtb.wrMisses                  0                       # TLB misses on write requests (Count)
system.atomicCpu1.mmu.dtb.walker.power_state.pwrStateResidencyTicks::UNDEFINED 160293367505501                       # Cumulative time (in ticks) in various power states (Tick)
system.atomicCpu1.mmu.itb.rdAccesses                0                       # TLB accesses on read requests (Count)
system.atomicCpu1.mmu.itb.wrAccesses                0                       # TLB accesses on write requests (Count)
system.atomicCpu1.mmu.itb.rdMisses                  0                       # TLB misses on read requests (Count)
system.atomicCpu1.mmu.itb.wrMisses                  0                       # TLB misses on write requests (Count)
system.atomicCpu1.mmu.itb.walker.power_state.pwrStateResidencyTicks::UNDEFINED 160293367505501                       # Cumulative time (in ticks) in various power states (Tick)
system.atomicCpu1.power_state.pwrStateResidencyTicks::OFF 160293367505501                       # Cumulative time (in ticks) in various power states (Tick)
system.atomicCpu1.thread_0.numInsts                 0                       # Number of Instructions committed (Count)
system.atomicCpu1.thread_0.numOps                   0                       # Number of Ops committed (Count)
system.atomicCpu1.thread_0.numMemRefs               0                       # Number of Memory References (Count)
system.caches.delayHistogram::bucket_size           64                       # delay histogram for all message (Unspecified)
system.caches.delayHistogram::max_bucket          639                       # delay histogram for all message (Unspecified)
system.caches.delayHistogram::samples       577262155                       # delay histogram for all message (Unspecified)
system.caches.delayHistogram::mean           0.136291                       # delay histogram for all message (Unspecified)
system.caches.delayHistogram::stdev          1.033136                       # delay histogram for all message (Unspecified)
system.caches.delayHistogram             |   577262145    100.00%    100.00% |           7      0.00%    100.00% |           0      0.00%    100.00% |           0      0.00%    100.00% |           1      0.00%    100.00% |           0      0.00%    100.00% |           0      0.00%    100.00% |           2      0.00%    100.00% |           0      0.00%    100.00% |           0      0.00%    100.00% # delay histogram for all message (Unspecified)
system.caches.delayHistogram::total         577262155                       # delay histogram for all message (Unspecified)
system.caches.m_outstandReqHistSeqr::bucket_size            1                       (Unspecified)
system.caches.m_outstandReqHistSeqr::max_bucket            9                       (Unspecified)
system.caches.m_outstandReqHistSeqr::samples   3031741665                       (Unspecified)
system.caches.m_outstandReqHistSeqr::mean     1.005267                       (Unspecified)
system.caches.m_outstandReqHistSeqr::gmean     1.003657                       (Unspecified)
system.caches.m_outstandReqHistSeqr::stdev     0.072381                       (Unspecified)
system.caches.m_outstandReqHistSeqr      |           0      0.00%      0.00% |  3015774399     99.47%     99.47% |    15967266      0.53%    100.00% |           0      0.00%    100.00% |           0      0.00%    100.00% |           0      0.00%    100.00% |           0      0.00%    100.00% |           0      0.00%    100.00% |           0      0.00%    100.00% |           0      0.00%    100.00% (Unspecified)
system.caches.m_outstandReqHistSeqr::total   3031741665                       (Unspecified)
system.caches.m_latencyHistSeqr::bucket_size          512                       (Unspecified)
system.caches.m_latencyHistSeqr::max_bucket         5119                       (Unspecified)
system.caches.m_latencyHistSeqr::samples   3031741664                       (Unspecified)
system.caches.m_latencyHistSeqr::mean        4.244751                       (Unspecified)
system.caches.m_latencyHistSeqr::gmean       1.213008                       (Unspecified)
system.caches.m_latencyHistSeqr::stdev      34.441254                       (Unspecified)
system.caches.m_latencyHistSeqr          |  3030445518     99.96%     99.96% |      792270      0.03%     99.98% |      255582      0.01%     99.99% |      242217      0.01%    100.00% |        5772      0.00%    100.00% |         304      0.00%    100.00% |           1      0.00%    100.00% |           0      0.00%    100.00% |           0      0.00%    100.00% |           0      0.00%    100.00% (Unspecified)
system.caches.m_latencyHistSeqr::total     3031741664                       (Unspecified)
system.caches.m_hitLatencyHistSeqr::bucket_size            1                       (Unspecified)
system.caches.m_hitLatencyHistSeqr::max_bucket            9                       (Unspecified)
system.caches.m_hitLatencyHistSeqr::samples   2832312005                       (Unspecified)
system.caches.m_hitLatencyHistSeqr::mean            1                       (Unspecified)
system.caches.m_hitLatencyHistSeqr::gmean            1                       (Unspecified)
system.caches.m_hitLatencyHistSeqr       |           0      0.00%      0.00% |  2832312005    100.00%    100.00% |           0      0.00%    100.00% |           0      0.00%    100.00% |           0      0.00%    100.00% |           0      0.00%    100.00% |           0      0.00%    100.00% |           0      0.00%    100.00% |           0      0.00%    100.00% |           0      0.00%    100.00% (Unspecified)
system.caches.m_hitLatencyHistSeqr::total   2832312005                       (Unspecified)
system.caches.m_missLatencyHistSeqr::bucket_size          512                       (Unspecified)
system.caches.m_missLatencyHistSeqr::max_bucket         5119                       (Unspecified)
system.caches.m_missLatencyHistSeqr::samples    199429659                       (Unspecified)
system.caches.m_missLatencyHistSeqr::mean    50.326897                       (Unspecified)
system.caches.m_missLatencyHistSeqr::gmean    18.832173                       (Unspecified)
system.caches.m_missLatencyHistSeqr::stdev   125.537224                       (Unspecified)
system.caches.m_missLatencyHistSeqr      |   198133513     99.35%     99.35% |      792270      0.40%     99.75% |      255582      0.13%     99.88% |      242217      0.12%    100.00% |        5772      0.00%    100.00% |         304      0.00%    100.00% |           1      0.00%    100.00% |           0      0.00%    100.00% |           0      0.00%    100.00% |           0      0.00%    100.00% (Unspecified)
system.caches.m_missLatencyHistSeqr::total    199429659                       (Unspecified)
system.caches.delayVCHist.vnet_0::bucket_size           64                       # delay histogram for vnet_0 (Unspecified)
system.caches.delayVCHist.vnet_0::max_bucket          639                       # delay histogram for vnet_0 (Unspecified)
system.caches.delayVCHist.vnet_0::samples    284198523                       # delay histogram for vnet_0 (Unspecified)
system.caches.delayVCHist.vnet_0::mean       0.038390                       # delay histogram for vnet_0 (Unspecified)
system.caches.delayVCHist.vnet_0::stdev      0.546042                       # delay histogram for vnet_0 (Unspecified)
system.caches.delayVCHist.vnet_0         |   284198513    100.00%    100.00% |           7      0.00%    100.00% |           0      0.00%    100.00% |           0      0.00%    100.00% |           1      0.00%    100.00% |           0      0.00%    100.00% |           0      0.00%    100.00% |           2      0.00%    100.00% |           0      0.00%    100.00% |           0      0.00%    100.00% # delay histogram for vnet_0 (Unspecified)
system.caches.delayVCHist.vnet_0::total     284198523                       # delay histogram for vnet_0 (Unspecified)
system.caches.delayVCHist.vnet_1::bucket_size            2                       # delay histogram for vnet_1 (Unspecified)
system.caches.delayVCHist.vnet_1::max_bucket           19                       # delay histogram for vnet_1 (Unspecified)
system.caches.delayVCHist.vnet_1::samples    288617296                       # delay histogram for vnet_1 (Unspecified)
system.caches.delayVCHist.vnet_1::mean       0.234783                       # delay histogram for vnet_1 (Unspecified)
system.caches.delayVCHist.vnet_1::stdev      1.349741                       # delay histogram for vnet_1 (Unspecified)
system.caches.delayVCHist.vnet_1         |   280128644     97.06%     97.06% |       14524      0.01%     97.06% |       10019      0.00%     97.07% |       18234      0.01%     97.07% |     8437487      2.92%    100.00% |        8387      0.00%    100.00% |           0      0.00%    100.00% |           1      0.00%    100.00% |           0      0.00%    100.00% |           0      0.00%    100.00% # delay histogram for vnet_1 (Unspecified)
system.caches.delayVCHist.vnet_1::total     288617296                       # delay histogram for vnet_1 (Unspecified)
system.caches.delayVCHist.vnet_2::bucket_size            1                       # delay histogram for vnet_2 (Unspecified)
system.caches.delayVCHist.vnet_2::max_bucket            9                       # delay histogram for vnet_2 (Unspecified)
system.caches.delayVCHist.vnet_2::samples      4446336                       # delay histogram for vnet_2 (Unspecified)
system.caches.delayVCHist.vnet_2::mean       0.000629                       # delay histogram for vnet_2 (Unspecified)
system.caches.delayVCHist.vnet_2::stdev      0.035496                       # delay histogram for vnet_2 (Unspecified)
system.caches.delayVCHist.vnet_2         |     4444938     99.97%     99.97% |           0      0.00%     99.97% |        1397      0.03%    100.00% |           0      0.00%    100.00% |           1      0.00%    100.00% |           0      0.00%    100.00% |           0      0.00%    100.00% |           0      0.00%    100.00% |           0      0.00%    100.00% |           0      0.00%    100.00% # delay histogram for vnet_2 (Unspecified)
system.caches.delayVCHist.vnet_2::total       4446336                       # delay histogram for vnet_2 (Unspecified)
system.caches.L1Cache_Controller.Load    |   451179215     49.94%     49.94% |   452245798     50.06%    100.00% (Unspecified)
system.caches.L1Cache_Controller.Load::total    903425013                       (Unspecified)
system.caches.L1Cache_Controller.Ifetch  |  1051132568     49.84%     49.84% |  1057866969     50.16%    100.00% (Unspecified)
system.caches.L1Cache_Controller.Ifetch::total   2108999537                       (Unspecified)
system.caches.L1Cache_Controller.Store   |     9880196     51.15%     51.15% |     9436919     48.85%    100.00% (Unspecified)
system.caches.L1Cache_Controller.Store::total     19317115                       (Unspecified)
system.caches.L1Cache_Controller.Inv     |     1419023     50.08%     50.08% |     1414250     49.92%    100.00% (Unspecified)
system.caches.L1Cache_Controller.Inv::total      2833273                       (Unspecified)
system.caches.L1Cache_Controller.L1_Replacement |    99608817     50.04%     50.04% |    99467757     49.96%    100.00% (Unspecified)
system.caches.L1Cache_Controller.L1_Replacement::total    199076574                       (Unspecified)
system.caches.L1Cache_Controller.Fwd_GETX |       42004     49.75%     49.75% |       42428     50.25%    100.00% (Unspecified)
system.caches.L1Cache_Controller.Fwd_GETX::total        84432                       (Unspecified)
system.caches.L1Cache_Controller.Fwd_GETS |      769424     50.33%     50.33% |      759207     49.67%    100.00% (Unspecified)
system.caches.L1Cache_Controller.Fwd_GETS::total      1528631                       (Unspecified)
system.caches.L1Cache_Controller.Data    |       57707     47.00%     47.00% |       65062     53.00%    100.00% (Unspecified)
system.caches.L1Cache_Controller.Data::total       122769                       (Unspecified)
system.caches.L1Cache_Controller.Data_Exclusive |    20831830     50.04%     50.04% |    20799930     49.96%    100.00% (Unspecified)
system.caches.L1Cache_Controller.Data_Exclusive::total     41631760                       (Unspecified)
system.caches.L1Cache_Controller.DataS_fromL1 |      759207     49.67%     49.67% |      769424     50.33%    100.00% (Unspecified)
system.caches.L1Cache_Controller.DataS_fromL1::total      1528631                       (Unspecified)
system.caches.L1Cache_Controller.Data_all_Acks |    78078035     50.04%     50.04% |    77952087     49.96%    100.00% (Unspecified)
system.caches.L1Cache_Controller.Data_all_Acks::total    156030122                       (Unspecified)
system.caches.L1Cache_Controller.Ack     |       62993     54.13%     54.13% |       53384     45.87%    100.00% (Unspecified)
system.caches.L1Cache_Controller.Ack::total       116377                       (Unspecified)
system.caches.L1Cache_Controller.Ack_all |      120700     50.47%     50.47% |      118446     49.53%    100.00% (Unspecified)
system.caches.L1Cache_Controller.Ack_all::total       239146                       (Unspecified)
system.caches.L1Cache_Controller.WB_Ack  |    20432490     50.07%     50.07% |    20377674     49.93%    100.00% (Unspecified)
system.caches.L1Cache_Controller.WB_Ack::total     40810164                       (Unspecified)
system.caches.L1Cache_Controller.NP.Load |    99243602     50.02%     50.02% |    99155836     49.98%    100.00% (Unspecified)
system.caches.L1Cache_Controller.NP.Load::total    198399438                       (Unspecified)
system.caches.L1Cache_Controller.NP.Ifetch |       59684     64.30%     64.30% |       33133     35.70%    100.00% (Unspecified)
system.caches.L1Cache_Controller.NP.Ifetch::total        92817                       (Unspecified)
system.caches.L1Cache_Controller.NP.Store |      314234     52.22%     52.22% |      287492     47.78%    100.00% (Unspecified)
system.caches.L1Cache_Controller.NP.Store::total       601726                       (Unspecified)
system.caches.L1Cache_Controller.NP.Inv  |     1305796     50.15%     50.15% |     1298051     49.85%    100.00% (Unspecified)
system.caches.L1Cache_Controller.NP.Inv::total      2603847                       (Unspecified)
system.caches.L1Cache_Controller.I.Load  |       21922     41.72%     41.72% |       30622     58.28%    100.00% (Unspecified)
system.caches.L1Cache_Controller.I.Load::total        52544                       (Unspecified)
system.caches.L1Cache_Controller.I.Ifetch |       47434     54.80%     54.80% |       39119     45.20%    100.00% (Unspecified)
system.caches.L1Cache_Controller.I.Ifetch::total        86553                       (Unspecified)
system.caches.L1Cache_Controller.I.Store |       39249     50.07%     50.07% |       39142     49.93%    100.00% (Unspecified)
system.caches.L1Cache_Controller.I.Store::total        78391                       (Unspecified)
system.caches.L1Cache_Controller.I.L1_Replacement |       45953     48.77%     48.77% |       48267     51.23%    100.00% (Unspecified)
system.caches.L1Cache_Controller.I.L1_Replacement::total        94220                       (Unspecified)
system.caches.L1Cache_Controller.S.Load  |   209136295     49.90%     49.90% |   209949218     50.10%    100.00% (Unspecified)
system.caches.L1Cache_Controller.S.Load::total    419085513                       (Unspecified)
system.caches.L1Cache_Controller.S.Ifetch |  1051025450     49.84%     49.84% |  1057794717     50.16%    100.00% (Unspecified)
system.caches.L1Cache_Controller.S.Ifetch::total   2108820167                       (Unspecified)
system.caches.L1Cache_Controller.S.Store |       63648     53.85%     53.85% |       54543     46.15%    100.00% (Unspecified)
system.caches.L1Cache_Controller.S.Store::total       118191                       (Unspecified)
system.caches.L1Cache_Controller.S.Inv   |      112051     49.45%     49.45% |      114562     50.55%    100.00% (Unspecified)
system.caches.L1Cache_Controller.S.Inv::total       226613                       (Unspecified)
system.caches.L1Cache_Controller.S.L1_Replacement |    79130374     50.03%     50.03% |    79041816     49.97%    100.00% (Unspecified)
system.caches.L1Cache_Controller.S.L1_Replacement::total    158172190                       (Unspecified)
system.caches.L1Cache_Controller.E.Load  |   137142564     49.86%     49.86% |   137914952     50.14%    100.00% (Unspecified)
system.caches.L1Cache_Controller.E.Load::total    275057516                       (Unspecified)
system.caches.L1Cache_Controller.E.Store |      296839     50.89%     50.89% |      286445     49.11%    100.00% (Unspecified)
system.caches.L1Cache_Controller.E.Store::total       583284                       (Unspecified)
system.caches.L1Cache_Controller.E.Inv   |         360     46.75%     46.75% |         410     53.25%    100.00% (Unspecified)
system.caches.L1Cache_Controller.E.Inv::total          770                       (Unspecified)
system.caches.L1Cache_Controller.E.L1_Replacement |    19830083     50.03%     50.03% |    19805929     49.97%    100.00% (Unspecified)
system.caches.L1Cache_Controller.E.L1_Replacement::total     39636012                       (Unspecified)
system.caches.L1Cache_Controller.E.Fwd_GETX |          31      3.33%      3.33% |         901     96.67%    100.00% (Unspecified)
system.caches.L1Cache_Controller.E.Fwd_GETX::total          932                       (Unspecified)
system.caches.L1Cache_Controller.E.Fwd_GETS |      703337     49.94%     49.94% |      704997     50.06%    100.00% (Unspecified)
system.caches.L1Cache_Controller.E.Fwd_GETS::total      1408334                       (Unspecified)
system.caches.L1Cache_Controller.M.Load  |     5634832     52.03%     52.03% |     5195170     47.97%    100.00% (Unspecified)
system.caches.L1Cache_Controller.M.Load::total     10830002                       (Unspecified)
system.caches.L1Cache_Controller.M.Store |     9166226     51.11%     51.11% |     8769297     48.89%    100.00% (Unspecified)
system.caches.L1Cache_Controller.M.Store::total     17935523                       (Unspecified)
system.caches.L1Cache_Controller.M.Inv   |         160     73.39%     73.39% |          58     26.61%    100.00% (Unspecified)
system.caches.L1Cache_Controller.M.Inv::total          218                       (Unspecified)
system.caches.L1Cache_Controller.M.L1_Replacement |      602407     51.31%     51.31% |      571745     48.69%    100.00% (Unspecified)
system.caches.L1Cache_Controller.M.L1_Replacement::total      1174152                       (Unspecified)
system.caches.L1Cache_Controller.M.Fwd_GETX |       41973     50.27%     50.27% |       41527     49.73%    100.00% (Unspecified)
system.caches.L1Cache_Controller.M.Fwd_GETX::total        83500                       (Unspecified)
system.caches.L1Cache_Controller.M.Fwd_GETS |       66074     54.93%     54.93% |       54205     45.07%    100.00% (Unspecified)
system.caches.L1Cache_Controller.M.Fwd_GETS::total       120279                       (Unspecified)
system.caches.L1Cache_Controller.IS.Inv  |           0      0.00%      0.00% |          10    100.00%    100.00% (Unspecified)
system.caches.L1Cache_Controller.IS.Inv::total           10                       (Unspecified)
system.caches.L1Cache_Controller.IS.Data_Exclusive |    20831830     50.04%     50.04% |    20799928     49.96%    100.00% (Unspecified)
system.caches.L1Cache_Controller.IS.Data_Exclusive::total     41631758                       (Unspecified)
system.caches.L1Cache_Controller.IS.DataS_fromL1 |      759207     49.67%     49.67% |      769416     50.33%    100.00% (Unspecified)
system.caches.L1Cache_Controller.IS.DataS_fromL1::total      1528623                       (Unspecified)
system.caches.L1Cache_Controller.IS.Data_all_Acks |    77781604     50.03%     50.03% |    77689356     49.97%    100.00% (Unspecified)
system.caches.L1Cache_Controller.IS.Data_all_Acks::total    155470960                       (Unspecified)
system.caches.L1Cache_Controller.IM.Inv  |           1    100.00%    100.00% |           0      0.00%    100.00% (Unspecified)
system.caches.L1Cache_Controller.IM.Inv::total            1                       (Unspecified)
system.caches.L1Cache_Controller.IM.Data |       57707     47.00%     47.00% |       65062     53.00%    100.00% (Unspecified)
system.caches.L1Cache_Controller.IM.Data::total       122769                       (Unspecified)
system.caches.L1Cache_Controller.IM.Data_all_Acks |      296431     53.01%     53.01% |      262731     46.99%    100.00% (Unspecified)
system.caches.L1Cache_Controller.IM.Data_all_Acks::total       559162                       (Unspecified)
system.caches.L1Cache_Controller.SM.Inv  |         655     36.11%     36.11% |        1159     63.89%    100.00% (Unspecified)
system.caches.L1Cache_Controller.SM.Inv::total         1814                       (Unspecified)
system.caches.L1Cache_Controller.SM.Ack  |       62993     54.13%     54.13% |       53384     45.87%    100.00% (Unspecified)
system.caches.L1Cache_Controller.SM.Ack::total       116377                       (Unspecified)
system.caches.L1Cache_Controller.SM.Ack_all |      120700     50.47%     50.47% |      118446     49.53%    100.00% (Unspecified)
system.caches.L1Cache_Controller.SM.Ack_all::total       239146                       (Unspecified)
system.caches.L1Cache_Controller.IS_I.Data_Exclusive |           0      0.00%      0.00% |           2    100.00%    100.00% (Unspecified)
system.caches.L1Cache_Controller.IS_I.Data_Exclusive::total            2                       (Unspecified)
system.caches.L1Cache_Controller.IS_I.DataS_fromL1 |           0      0.00%      0.00% |           8    100.00%    100.00% (Unspecified)
system.caches.L1Cache_Controller.IS_I.DataS_fromL1::total            8                       (Unspecified)
system.caches.L1Cache_Controller.M_I.Fwd_GETS |          13     72.22%     72.22% |           5     27.78%    100.00% (Unspecified)
system.caches.L1Cache_Controller.M_I.Fwd_GETS::total           18                       (Unspecified)
system.caches.L1Cache_Controller.M_I.WB_Ack |    20432477     50.07%     50.07% |    20377669     49.93%    100.00% (Unspecified)
system.caches.L1Cache_Controller.M_I.WB_Ack::total     40810146                       (Unspecified)
system.caches.L1Cache_Controller.SINK_WB_ACK.WB_Ack |          13     72.22%     72.22% |           5     27.78%    100.00% (Unspecified)
system.caches.L1Cache_Controller.SINK_WB_ACK.WB_Ack::total           18                       (Unspecified)
system.caches.Directory_Controller.Fetch     22073321      0.00%      0.00% (Unspecified)
system.caches.Directory_Controller.Data        978710      0.00%      0.00% (Unspecified)
system.caches.Directory_Controller.Memory_Data     22073320      0.00%      0.00% (Unspecified)
system.caches.Directory_Controller.Memory_Ack       978710      0.00%      0.00% (Unspecified)
system.caches.Directory_Controller.CleanReplacement     20963539      0.00%      0.00% (Unspecified)
system.caches.Directory_Controller.I.Fetch     22073321      0.00%      0.00% (Unspecified)
system.caches.Directory_Controller.M.Data       978710      0.00%      0.00% (Unspecified)
system.caches.Directory_Controller.M.CleanReplacement     20963539      0.00%      0.00% (Unspecified)
system.caches.Directory_Controller.IM.Memory_Data     22073320      0.00%      0.00% (Unspecified)
system.caches.Directory_Controller.MI.Memory_Ack       978710      0.00%      0.00% (Unspecified)
system.caches.L2Cache_Controller.L1_GET_INSTR |       14228      7.93%      7.93% |       28079     15.65%     23.57% |       24237     13.51%     37.08% |       11576      6.45%     43.53% |       19218     10.71%     54.24% |       25125     14.00%     68.24% |       28552     15.91%     84.15% |       28447     15.85%    100.00% (Unspecified)
system.caches.L2Cache_Controller.L1_GET_INSTR::total       179462                       (Unspecified)
system.caches.L2Cache_Controller.L1_GETS |    24913148     12.55%     12.55% |    24740701     12.47%     25.02% |    24248576     12.22%     37.24% |    24642549     12.42%     49.66% |    25872511     13.04%     62.69% |    24745147     12.47%     75.16% |    24980561     12.59%     87.75% |    24314182     12.25%    100.00% (Unspecified)
system.caches.L2Cache_Controller.L1_GETS::total    198457375                       (Unspecified)
system.caches.L2Cache_Controller.L1_GETX |       80869     11.85%     11.85% |       72469     10.62%     22.48% |       63758      9.35%     31.82% |      155967     22.86%     54.68% |       70350     10.31%     65.00% |       86136     12.63%     77.62% |       73349     10.75%     88.37% |       79328     11.63%    100.00% (Unspecified)
system.caches.L2Cache_Controller.L1_GETX::total       682226                       (Unspecified)
system.caches.L2Cache_Controller.L1_UPGRADE |         518      0.42%      0.42% |       55901     45.58%     46.00% |         132      0.11%     46.11% |         147      0.12%     46.23% |         163      0.13%     46.36% |       54663     44.57%     90.93% |       10929      8.91%     99.84% |         200      0.16%    100.00% (Unspecified)
system.caches.L2Cache_Controller.L1_UPGRADE::total       122653                       (Unspecified)
system.caches.L2Cache_Controller.L1_PUTX |     5088020     12.47%     12.47% |     5111115     12.52%     24.99% |     5091026     12.47%     37.47% |     5095716     12.49%     49.95% |     5153048     12.63%     62.58% |     5131306     12.57%     75.15% |     5104548     12.51%     87.66% |     5035403     12.34%    100.00% (Unspecified)
system.caches.L2Cache_Controller.L1_PUTX::total     40810182                       (Unspecified)
system.caches.L2Cache_Controller.L2_Replacement |      122544     12.52%     12.52% |      122238     12.49%     25.01% |      122185     12.48%     37.50% |      122319     12.50%     49.99% |      122145     12.48%     62.48% |      122640     12.53%     75.01% |      122209     12.49%     87.49% |      122400     12.51%    100.00% (Unspecified)
system.caches.L2Cache_Controller.L2_Replacement::total       978680                       (Unspecified)
system.caches.L2Cache_Controller.L2_Replacement_clean |     2619486     12.50%     12.50% |     2622364     12.51%     25.00% |     2619846     12.50%     37.50% |     2618948     12.49%     49.99% |     2617969     12.49%     62.48% |     2621929     12.51%     74.99% |     2619105     12.49%     87.48% |     2623922     12.52%    100.00% (Unspecified)
system.caches.L2Cache_Controller.L2_Replacement_clean::total     20963569                       (Unspecified)
system.caches.L2Cache_Controller.Mem_Data |     2758414     12.50%     12.50% |     2760986     12.51%     25.00% |     2758415     12.50%     37.50% |     2757651     12.49%     49.99% |     2756497     12.49%     62.48% |     2760953     12.51%     74.99% |     2757698     12.49%     87.48% |     2762706     12.52%    100.00% (Unspecified)
system.caches.L2Cache_Controller.Mem_Data::total     22073320                       (Unspecified)
system.caches.L2Cache_Controller.Mem_Ack |     2742030     12.50%     12.50% |     2744602     12.51%     25.00% |     2742031     12.50%     37.50% |     2741267     12.49%     49.99% |     2740114     12.49%     62.48% |     2744569     12.51%     74.99% |     2741314     12.49%     87.48% |     2746322     12.52%    100.00% (Unspecified)
system.caches.L2Cache_Controller.Mem_Ack::total     21942249                       (Unspecified)
system.caches.L2Cache_Controller.WB_Data |        3096      2.57%      2.57% |       53957     44.78%     47.35% |         296      0.25%     47.59% |         292      0.24%     47.84% |         286      0.24%     48.07% |       53511     44.41%     92.48% |        8691      7.21%     99.69% |         369      0.31%    100.00% (Unspecified)
system.caches.L2Cache_Controller.WB_Data::total       120498                       (Unspecified)
system.caches.L2Cache_Controller.WB_Data_clean |      168096     11.94%     11.94% |      167215     11.87%     23.81% |      166639     11.83%     35.64% |      165833     11.77%     47.42% |      161489     11.47%     58.88% |      166134     11.80%     70.68% |      165507     11.75%     82.43% |      247438     17.57%    100.00% (Unspecified)
system.caches.L2Cache_Controller.WB_Data_clean::total      1408351                       (Unspecified)
system.caches.L2Cache_Controller.Ack     |      153508     11.93%     11.93% |      151494     11.77%     23.70% |      151357     11.76%     35.47% |      149680     11.63%     47.10% |      146305     11.37%     58.47% |      151592     11.78%     70.25% |      150688     11.71%     81.96% |      232105     18.04%    100.00% (Unspecified)
system.caches.L2Cache_Controller.Ack::total      1286729                       (Unspecified)
system.caches.L2Cache_Controller.Ack_all |      156467     11.97%     11.97% |      154337     11.81%     23.78% |      153847     11.77%     35.55% |      152245     11.65%     47.19% |      148536     11.36%     58.56% |      153848     11.77%     70.33% |      152746     11.69%     82.01% |      235154     17.99%    100.00% (Unspecified)
system.caches.L2Cache_Controller.Ack_all::total      1307180                       (Unspecified)
system.caches.L2Cache_Controller.Unblock |      171159     11.20%     11.20% |      221151     14.47%     25.66% |      166932     10.92%     36.58% |      166022     10.86%     47.45% |      161722     10.58%     58.02% |      219644     14.37%     72.39% |      174195     11.40%     83.79% |      247806     16.21%    100.00% (Unspecified)
system.caches.L2Cache_Controller.Unblock::total      1528631                       (Unspecified)
system.caches.L2Cache_Controller.Exclusive_Unblock |     5261175     12.40%     12.40% |     5334213     12.57%     24.97% |     5258749     12.39%     37.37% |     5343837     12.59%     49.96% |     5315593     12.53%     62.49% |     5352880     12.62%     75.10% |     5279574     12.44%     87.55% |     5284047     12.45%    100.00% (Unspecified)
system.caches.L2Cache_Controller.Exclusive_Unblock::total     42430068                       (Unspecified)
system.caches.L2Cache_Controller.NP.L1_GET_INSTR |        8164     13.51%     13.51% |        8304     13.74%     27.25% |        7213     11.94%     39.19% |        6765     11.20%     50.38% |        7488     12.39%     62.78% |        7547     12.49%     75.26% |        7224     11.95%     87.22% |        7723     12.78%    100.00% (Unspecified)
system.caches.L2Cache_Controller.NP.L1_GET_INSTR::total        60428                       (Unspecified)
system.caches.L2Cache_Controller.NP.L1_GETS |     2711848     12.49%     12.49% |     2714600     12.51%     25.00% |     2713055     12.50%     37.50% |     2712612     12.50%     49.99% |     2711044     12.49%     62.48% |     2714784     12.51%     74.99% |     2712349     12.50%     87.48% |     2716705     12.52%    100.00% (Unspecified)
system.caches.L2Cache_Controller.NP.L1_GETS::total     21706997                       (Unspecified)
system.caches.L2Cache_Controller.NP.L1_GETX |       38402     12.55%     12.55% |       38082     12.45%     25.00% |       38147     12.47%     37.47% |       38274     12.51%     49.99% |       37966     12.41%     62.40% |       38622     12.63%     75.02% |       38125     12.46%     87.49% |       38278     12.51%    100.00% (Unspecified)
system.caches.L2Cache_Controller.NP.L1_GETX::total       305896                       (Unspecified)
system.caches.L2Cache_Controller.SS.L1_GET_INSTR |        3384      3.32%      3.32% |       17211     16.86%     20.18% |       15132     14.83%     35.01% |        2715      2.66%     37.67% |        9540      9.35%     47.01% |       15554     15.24%     62.25% |       19553     19.16%     81.41% |       18972     18.59%    100.00% (Unspecified)
system.caches.L2Cache_Controller.SS.L1_GET_INSTR::total       102061                       (Unspecified)
system.caches.L2Cache_Controller.SS.L1_GETS |    19561493     12.60%     12.60% |    19311694     12.44%     25.03% |    18886489     12.16%     37.20% |    19288562     12.42%     49.62% |    20465427     13.18%     62.80% |    19311416     12.44%     75.23% |    19601655     12.62%     87.85% |    18860878     12.15%    100.00% (Unspecified)
system.caches.L2Cache_Controller.SS.L1_GETS::total    155287614                       (Unspecified)
system.caches.L2Cache_Controller.SS.L1_GETX |       17287     14.08%     14.08% |       15015     12.23%     26.31% |       14690     11.97%     38.28% |       14915     12.15%     50.43% |       15041     12.25%     62.68% |       14577     11.87%     74.55% |       16495     13.44%     87.99% |       14749     12.01%    100.00% (Unspecified)
system.caches.L2Cache_Controller.SS.L1_GETX::total       122769                       (Unspecified)
system.caches.L2Cache_Controller.SS.L1_UPGRADE |         518      0.45%      0.45% |       54881     47.16%     47.60% |         132      0.11%     47.72% |         147      0.13%     47.84% |         163      0.14%     47.98% |       53636     46.09%     94.07% |        6700      5.76%     99.83% |         200      0.17%    100.00% (Unspecified)
system.caches.L2Cache_Controller.SS.L1_UPGRADE::total       116377                       (Unspecified)
system.caches.L2Cache_Controller.SS.L1_PUTX |           1      5.56%      5.56% |           2     11.11%     16.67% |           3     16.67%     33.33% |           2     11.11%     44.44% |           0      0.00%     44.44% |           4     22.22%     66.67% |           3     16.67%     83.33% |           3     16.67%    100.00% (Unspecified)
system.caches.L2Cache_Controller.SS.L1_PUTX::total           18                       (Unspecified)
system.caches.L2Cache_Controller.SS.L2_Replacement |       15381     12.55%     12.55% |       15343     12.52%     25.06% |       15159     12.37%     37.43% |       15183     12.39%     49.81% |       15175     12.38%     62.19% |       15346     12.52%     74.71% |       15725     12.83%     87.54% |       15276     12.46%    100.00% (Unspecified)
system.caches.L2Cache_Controller.SS.L2_Replacement::total       122588                       (Unspecified)
system.caches.L2Cache_Controller.SS.L2_Replacement_clean |      140757     11.89%     11.89% |      138928     11.74%     23.63% |      138633     11.71%     35.34% |      137009     11.57%     46.91% |      133306     11.26%     58.17% |      138428     11.69%     69.86% |      136944     11.57%     81.43% |      219817     18.57%    100.00% (Unspecified)
system.caches.L2Cache_Controller.SS.L2_Replacement_clean::total      1183822                       (Unspecified)
system.caches.L2Cache_Controller.M.L1_GETS |     2468269     12.39%     12.39% |     2492761     12.51%     24.90% |     2481950     12.46%     37.35% |     2475228     12.42%     49.77% |     2534172     12.72%     62.49% |     2498810     12.54%     75.03% |     2487269     12.48%     87.51% |     2488293     12.49%    100.00% (Unspecified)
system.caches.L2Cache_Controller.M.L1_GETS::total     19926752                       (Unspecified)
system.caches.L2Cache_Controller.M.L1_GETX |       24274     14.38%     14.38% |       18096     10.72%     25.10% |       10899      6.46%     31.55% |       21563     12.77%     44.32% |       17339     10.27%     54.59% |       31699     18.78%     73.37% |       18713     11.08%     84.45% |       26251     15.55%    100.00% (Unspecified)
system.caches.L2Cache_Controller.M.L1_GETX::total       168834                       (Unspecified)
system.caches.L2Cache_Controller.M.L2_Replacement |      107129     12.52%     12.52% |      106870     12.49%     25.00% |      107026     12.50%     37.51% |      107038     12.51%     50.01% |      106922     12.49%     62.51% |      107285     12.54%     75.04% |      106480     12.44%     87.48% |      107122     12.52%    100.00% (Unspecified)
system.caches.L2Cache_Controller.M.L2_Replacement::total       855872                       (Unspecified)
system.caches.L2Cache_Controller.M.L2_Replacement_clean |     2478401     12.53%     12.53% |     2483374     12.56%     25.09% |     2481155     12.54%     37.63% |     2481881     12.55%     50.18% |     2484603     12.56%     62.74% |     2483435     12.56%     75.30% |     2482085     12.55%     87.85% |     2404045     12.15%    100.00% (Unspecified)
system.caches.L2Cache_Controller.M.L2_Replacement_clean::total     19778979                       (Unspecified)
system.caches.L2Cache_Controller.MT.L1_GETS |      171159     11.20%     11.20% |      221151     14.47%     25.66% |      166932     10.92%     36.58% |      166022     10.86%     47.45% |      161722     10.58%     58.02% |      219644     14.37%     72.39% |      174195     11.40%     83.79% |      247806     16.21%    100.00% (Unspecified)
system.caches.L2Cache_Controller.MT.L1_GETS::total      1528631                       (Unspecified)
system.caches.L2Cache_Controller.MT.L1_GETX |         902      1.07%      1.07% |        1122      1.33%      2.40% |          22      0.03%      2.42% |       81213     96.19%     98.61% |           4      0.00%     98.62% |        1104      1.31%     99.92% |          16      0.02%     99.94% |          49      0.06%    100.00% (Unspecified)
system.caches.L2Cache_Controller.MT.L1_GETX::total        84432                       (Unspecified)
system.caches.L2Cache_Controller.MT.L1_PUTX |     5088018     12.47%     12.47% |     5111111     12.52%     24.99% |     5091020     12.47%     37.47% |     5095712     12.49%     49.95% |     5153048     12.63%     62.58% |     5131298     12.57%     75.15% |     5104542     12.51%     87.66% |     5035397     12.34%    100.00% (Unspecified)
system.caches.L2Cache_Controller.MT.L1_PUTX::total     40810146                       (Unspecified)
system.caches.L2Cache_Controller.MT.L2_Replacement |          34     15.45%     15.45% |          25     11.36%     26.82% |           0      0.00%     26.82% |          98     44.55%     71.36% |          48     21.82%     93.18% |           9      4.09%     97.27% |           4      1.82%     99.09% |           2      0.91%    100.00% (Unspecified)
system.caches.L2Cache_Controller.MT.L2_Replacement::total          220                       (Unspecified)
system.caches.L2Cache_Controller.MT.L2_Replacement_clean |         328     42.71%     42.71% |          62      8.07%     50.78% |          58      7.55%     58.33% |          58      7.55%     65.89% |          60      7.81%     73.70% |          66      8.59%     82.29% |          76      9.90%     92.19% |          60      7.81%    100.00% (Unspecified)
system.caches.L2Cache_Controller.MT.L2_Replacement_clean::total          768                       (Unspecified)
system.caches.L2Cache_Controller.M_I.L1_GET_INSTR |           1      1.09%      1.09% |           1      1.09%      2.17% |           3      3.26%      5.43% |          85     92.39%     97.83% |           0      0.00%     97.83% |           0      0.00%     97.83% |           1      1.09%     98.91% |           1      1.09%    100.00% (Unspecified)
system.caches.L2Cache_Controller.M_I.L1_GET_INSTR::total           92                       (Unspecified)
system.caches.L2Cache_Controller.M_I.L1_GETS |          43     79.63%     79.63% |           2      3.70%     83.33% |           1      1.85%     85.19% |           0      0.00%     85.19% |           3      5.56%     90.74% |           3      5.56%     96.30% |           0      0.00%     96.30% |           2      3.70%    100.00% (Unspecified)
system.caches.L2Cache_Controller.M_I.L1_GETS::total           54                       (Unspecified)
system.caches.L2Cache_Controller.M_I.L1_GETX |           4     66.67%     66.67% |           0      0.00%     66.67% |           0      0.00%     66.67% |           0      0.00%     66.67% |           0      0.00%     66.67% |           2     33.33%    100.00% |           0      0.00%    100.00% |           0      0.00%    100.00% (Unspecified)
system.caches.L2Cache_Controller.M_I.L1_GETX::total            6                       (Unspecified)
system.caches.L2Cache_Controller.M_I.Mem_Ack |     2742030     12.50%     12.50% |     2744602     12.51%     25.00% |     2742031     12.50%     37.50% |     2741267     12.49%     49.99% |     2740114     12.49%     62.48% |     2744569     12.51%     74.99% |     2741314     12.49%     87.48% |     2746322     12.52%    100.00% (Unspecified)
system.caches.L2Cache_Controller.M_I.Mem_Ack::total     21942249                       (Unspecified)
system.caches.L2Cache_Controller.MT_I.WB_Data |          30     15.96%     15.96% |          21     11.17%     27.13% |           0      0.00%     27.13% |          91     48.40%     75.53% |          46     24.47%    100.00% |           0      0.00%    100.00% |           0      0.00%    100.00% |           0      0.00%    100.00% (Unspecified)
system.caches.L2Cache_Controller.MT_I.WB_Data::total          188                       (Unspecified)
system.caches.L2Cache_Controller.MT_I.Ack_all |           4     12.50%     12.50% |           4     12.50%     25.00% |           0      0.00%     25.00% |           7     21.88%     46.88% |           2      6.25%     53.12% |           9     28.12%     81.25% |           4     12.50%     93.75% |           2      6.25%    100.00% (Unspecified)
system.caches.L2Cache_Controller.MT_I.Ack_all::total           32                       (Unspecified)
system.caches.L2Cache_Controller.MCT_I.WB_Data |           3     10.00%     10.00% |           0      0.00%     10.00% |           3     10.00%     20.00% |          12     40.00%     60.00% |           7     23.33%     83.33% |           1      3.33%     86.67% |           3     10.00%     96.67% |           1      3.33%    100.00% (Unspecified)
system.caches.L2Cache_Controller.MCT_I.WB_Data::total           30                       (Unspecified)
system.caches.L2Cache_Controller.MCT_I.Ack_all |         325     44.04%     44.04% |          62      8.40%     52.44% |          55      7.45%     59.89% |          46      6.23%     66.12% |          53      7.18%     73.31% |          65      8.81%     82.11% |          73      9.89%     92.01% |          59      7.99%    100.00% (Unspecified)
system.caches.L2Cache_Controller.MCT_I.Ack_all::total          738                       (Unspecified)
system.caches.L2Cache_Controller.I_I.L1_GETS |           0      0.00%      0.00% |           0      0.00%      0.00% |           0      0.00%      0.00% |           0      0.00%      0.00% |           0      0.00%      0.00% |           0      0.00%      0.00% |           1     50.00%     50.00% |           1     50.00%    100.00% (Unspecified)
system.caches.L2Cache_Controller.I_I.L1_GETS::total            2                       (Unspecified)
system.caches.L2Cache_Controller.I_I.Ack |      138127     11.87%     11.87% |      136151     11.70%     23.56% |      136198     11.70%     35.26% |      134497     11.55%     46.81% |      131130     11.26%     58.08% |      136246     11.70%     69.78% |      134963     11.59%     81.37% |      216829     18.63%    100.00% (Unspecified)
system.caches.L2Cache_Controller.I_I.Ack::total      1164141                       (Unspecified)
system.caches.L2Cache_Controller.I_I.Ack_all |      140757     11.89%     11.89% |      138928     11.74%     23.63% |      138633     11.71%     35.34% |      137009     11.57%     46.91% |      133306     11.26%     58.17% |      138428     11.69%     69.86% |      136944     11.57%     81.43% |      219817     18.57%    100.00% (Unspecified)
system.caches.L2Cache_Controller.I_I.Ack_all::total      1183822                       (Unspecified)
system.caches.L2Cache_Controller.S_I.Ack |       15381     12.55%     12.55% |       15343     12.52%     25.06% |       15159     12.37%     37.43% |       15183     12.39%     49.81% |       15175     12.38%     62.19% |       15346     12.52%     74.71% |       15725     12.83%     87.54% |       15276     12.46%    100.00% (Unspecified)
system.caches.L2Cache_Controller.S_I.Ack::total       122588                       (Unspecified)
system.caches.L2Cache_Controller.S_I.Ack_all |       15381     12.55%     12.55% |       15343     12.52%     25.06% |       15159     12.37%     37.43% |       15183     12.39%     49.81% |       15175     12.38%     62.19% |       15346     12.52%     74.71% |       15725     12.83%     87.54% |       15276     12.46%    100.00% (Unspecified)
system.caches.L2Cache_Controller.S_I.Ack_all::total       122588                       (Unspecified)
system.caches.L2Cache_Controller.ISS.L1_GETS |         325     16.35%     16.35% |         344     17.30%     33.65% |         146      7.34%     41.00% |         115      5.78%     46.78% |         135      6.79%     53.57% |         352     17.71%     71.28% |          93      4.68%     75.96% |         478     24.04%    100.00% (Unspecified)
system.caches.L2Cache_Controller.ISS.L1_GETS::total         1988                       (Unspecified)
system.caches.L2Cache_Controller.ISS.Mem_Data |     2711523     12.49%     12.49% |     2714256     12.51%     25.00% |     2712909     12.50%     37.50% |     2712497     12.50%     49.99% |     2710908     12.49%     62.48% |     2714432     12.51%     74.99% |     2712256     12.50%     87.49% |     2716227     12.51%    100.00% (Unspecified)
system.caches.L2Cache_Controller.ISS.Mem_Data::total     21705008                       (Unspecified)
system.caches.L2Cache_Controller.IS.L1_GET_INSTR |        2679     15.87%     15.87% |        2563     15.18%     31.05% |        1889     11.19%     42.24% |        2011     11.91%     54.16% |        2190     12.97%     67.13% |        2024     11.99%     79.12% |        1774     10.51%     89.63% |        1751     10.37%    100.00% (Unspecified)
system.caches.L2Cache_Controller.IS.L1_GET_INSTR::total        16881                       (Unspecified)
system.caches.L2Cache_Controller.IS.Mem_Data |        8489     13.60%     13.60% |        8648     13.86%     27.46% |        7359     11.79%     39.25% |        6880     11.02%     50.27% |        7623     12.21%     62.48% |        7899     12.66%     75.14% |        7317     11.72%     86.86% |        8201     13.14%    100.00% (Unspecified)
system.caches.L2Cache_Controller.IS.Mem_Data::total        62416                       (Unspecified)
system.caches.L2Cache_Controller.IM.L1_GETX |           0      0.00%      0.00% |           2     66.67%     66.67% |           0      0.00%     66.67% |           0      0.00%     66.67% |           0      0.00%     66.67% |           0      0.00%     66.67% |           0      0.00%     66.67% |           1     33.33%    100.00% (Unspecified)
system.caches.L2Cache_Controller.IM.L1_GETX::total            3                       (Unspecified)
system.caches.L2Cache_Controller.IM.Mem_Data |       38402     12.55%     12.55% |       38082     12.45%     25.00% |       38147     12.47%     37.47% |       38274     12.51%     49.99% |       37966     12.41%     62.40% |       38622     12.63%     75.02% |       38125     12.46%     87.49% |       38278     12.51%    100.00% (Unspecified)
system.caches.L2Cache_Controller.IM.Mem_Data::total       305896                       (Unspecified)
system.caches.L2Cache_Controller.SS_MB.L1_GETS |           0      0.00%      0.00% |         134      2.55%      2.55% |           0      0.00%      2.55% |           1      0.02%      2.57% |           0      0.00%      2.57% |         125      2.38%      4.95% |        4993     95.00%     99.94% |           3      0.06%    100.00% (Unspecified)
system.caches.L2Cache_Controller.SS_MB.L1_GETS::total         5256                       (Unspecified)
system.caches.L2Cache_Controller.SS_MB.L1_GETX |           0      0.00%      0.00% |         152     53.52%     53.52% |           0      0.00%     53.52% |           0      0.00%     53.52% |           0      0.00%     53.52% |         132     46.48%    100.00% |           0      0.00%    100.00% |           0      0.00%    100.00% (Unspecified)
system.caches.L2Cache_Controller.SS_MB.L1_GETX::total          284                       (Unspecified)
system.caches.L2Cache_Controller.SS_MB.L1_UPGRADE |           0      0.00%      0.00% |         911     50.22%     50.22% |           0      0.00%     50.22% |           0      0.00%     50.22% |           0      0.00%     50.22% |         903     49.78%    100.00% |           0      0.00%    100.00% |           0      0.00%    100.00% (Unspecified)
[...]
system.timingCpu0.exec_context.thread_0.statExecutedInstType::SimdFloatMultAcc            0      0.00%     80.12% # Class of executed instruction. (Count)
system.timingCpu0.exec_context.thread_0.statExecutedInstType::SimdFloatSqrt            0      0.00%     80.12% # Class of executed instruction. (Count)
system.timingCpu0.exec_context.thread_0.statExecutedInstType::SimdReduceAdd            0      0.00%     80.12% # Class of executed instruction. (Count)
system.timingCpu0.exec_context.thread_0.statExecutedInstType::SimdReduceAlu            0      0.00%     80.12% # Class of executed instruction. (Count)
system.timingCpu0.exec_context.thread_0.statExecutedInstType::SimdReduceCmp            0      0.00%     80.12% # Class of executed instruction. (Count)
system.timingCpu0.exec_context.thread_0.statExecutedInstType::SimdFloatReduceAdd            0      0.00%     80.12% # Class of executed instruction. (Count)
system.timingCpu0.exec_context.thread_0.statExecutedInstType::SimdFloatReduceCmp            0      0.00%     80.12% # Class of executed instruction. (Count)
system.timingCpu0.exec_context.thread_0.statExecutedInstType::SimdAes            0      0.00%     80.12% # Class of executed instruction. (Count)
system.timingCpu0.exec_context.thread_0.statExecutedInstType::SimdAesMix            0      0.00%     80.12% # Class of executed instruction. (Count)
system.timingCpu0.exec_context.thread_0.statExecutedInstType::SimdSha1Hash            0      0.00%     80.12% # Class of executed instruction. (Count)
system.timingCpu0.exec_context.thread_0.statExecutedInstType::SimdSha1Hash2            0      0.00%     80.12% # Class of executed instruction. (Count)
system.timingCpu0.exec_context.thread_0.statExecutedInstType::SimdSha256Hash            0      0.00%     80.12% # Class of executed instruction. (Count)
system.timingCpu0.exec_context.thread_0.statExecutedInstType::SimdSha256Hash2            0      0.00%     80.12% # Class of executed instruction. (Count)
system.timingCpu0.exec_context.thread_0.statExecutedInstType::SimdShaSigma2            0      0.00%     80.12% # Class of executed instruction. (Count)
system.timingCpu0.exec_context.thread_0.statExecutedInstType::SimdShaSigma3            0      0.00%     80.12% # Class of executed instruction. (Count)
system.timingCpu0.exec_context.thread_0.statExecutedInstType::SimdPredAlu            0      0.00%     80.12% # Class of executed instruction. (Count)
system.timingCpu0.exec_context.thread_0.statExecutedInstType::MemRead    147372087     10.07%     90.19% # Class of executed instruction. (Count)
system.timingCpu0.exec_context.thread_0.statExecutedInstType::MemWrite      1426395      0.10%     90.29% # Class of executed instruction. (Count)
system.timingCpu0.exec_context.thread_0.statExecutedInstType::FloatMemRead    133881595      9.15%     99.44% # Class of executed instruction. (Count)
system.timingCpu0.exec_context.thread_0.statExecutedInstType::FloatMemWrite      8254512      0.56%    100.00% # Class of executed instruction. (Count)
system.timingCpu0.exec_context.thread_0.statExecutedInstType::IprAccess            0      0.00%    100.00% # Class of executed instruction. (Count)
system.timingCpu0.exec_context.thread_0.statExecutedInstType::InstPrefetch            0      0.00%    100.00% # Class of executed instruction. (Count)
system.timingCpu0.exec_context.thread_0.statExecutedInstType::total   1463609755                       # Class of executed instruction. (Count)
system.timingCpu0.mmu.dtb.rdAccesses        329901185                       # TLB accesses on read requests (Count)
system.timingCpu0.mmu.dtb.wrAccesses          9692496                       # TLB accesses on write requests (Count)
system.timingCpu0.mmu.dtb.rdMisses           40661755                       # TLB misses on read requests (Count)
system.timingCpu0.mmu.dtb.wrMisses              11603                       # TLB misses on write requests (Count)
system.timingCpu0.mmu.dtb.walker.power_state.pwrStateResidencyTicks::UNDEFINED 160293367505501                       # Cumulative time (in ticks) in various power states (Tick)
system.timingCpu0.mmu.itb.rdAccesses                0                       # TLB accesses on read requests (Count)
system.timingCpu0.mmu.itb.wrAccesses       1051140842                       # TLB accesses on write requests (Count)
system.timingCpu0.mmu.itb.rdMisses                  0                       # TLB misses on read requests (Count)
system.timingCpu0.mmu.itb.wrMisses               8274                       # TLB misses on write requests (Count)
system.timingCpu0.mmu.itb.walker.power_state.pwrStateResidencyTicks::UNDEFINED 160293367505501                       # Cumulative time (in ticks) in various power states (Tick)
system.timingCpu0.power_state.pwrStateResidencyTicks::OFF 160293367505501                       # Cumulative time (in ticks) in various power states (Tick)
system.timingCpu0.thread_0.numInsts                 0                       # Number of Instructions committed (Count)
system.timingCpu0.thread_0.numOps                   0                       # Number of Ops committed (Count)
system.timingCpu0.thread_0.numMemRefs               0                       # Number of Memory References (Count)
system.timingCpu1.numCycles                7880378743                       # Number of cpu cycles simulated (Cycle)
system.timingCpu1.numWorkItemsStarted               0                       # Number of work items this cpu started (Count)
system.timingCpu1.numWorkItemsCompleted             0                       # Number of work items this cpu completed (Count)
system.timingCpu1.exec_context.thread_0.numInsts    758658948                       # Number of instructions committed (Count)
system.timingCpu1.exec_context.thread_0.numOps   1472042330                       # Number of ops (including micro ops) committed (Count)
system.timingCpu1.exec_context.thread_0.numIntAluAccesses   1274746790                       # Number of integer alu accesses (Count)
system.timingCpu1.exec_context.thread_0.numFpAluAccesses    338529027                       # Number of float alu accesses (Count)
system.timingCpu1.exec_context.thread_0.numVecAluAccesses            0                       # Number of vector alu accesses (Count)
system.timingCpu1.exec_context.thread_0.numCallsReturns       462522                       # Number of times a function call or return occured (Count)
system.timingCpu1.exec_context.thread_0.numCondCtrlInsts    141478674                       # Number of instructions that are conditional controls (Count)
system.timingCpu1.exec_context.thread_0.numIntInsts   1274746790                       # Number of integer instructions (Count)
system.timingCpu1.exec_context.thread_0.numFpInsts    338529027                       # Number of float instructions (Count)
system.timingCpu1.exec_context.thread_0.numVecInsts            0                       # Number of vector instructions (Count)
system.timingCpu1.exec_context.thread_0.numIntRegReads   1444958896                       # Number of times the integer registers were read (Count)
system.timingCpu1.exec_context.thread_0.numIntRegWrites    842714014                       # Number of times the integer registers were written (Count)
system.timingCpu1.exec_context.thread_0.numFpRegReads    509372637                       # Number of times the floating registers were read (Count)
system.timingCpu1.exec_context.thread_0.numFpRegWrites    330249347                       # Number of times the floating registers were written (Count)
system.timingCpu1.exec_context.thread_0.numVecRegReads            0                       # Number of times the vector registers were read (Count)
system.timingCpu1.exec_context.thread_0.numVecRegWrites            0                       # Number of times the vector registers were written (Count)
system.timingCpu1.exec_context.thread_0.numVecPredRegReads            0                       # Number of times the predicate registers were read (Count)
system.timingCpu1.exec_context.thread_0.numVecPredRegWrites            0                       # Number of times the predicate registers were written (Count)
system.timingCpu1.exec_context.thread_0.numCCRegReads    713514282                       # Number of times the CC registers were read (Count)
system.timingCpu1.exec_context.thread_0.numCCRegWrites    569203242                       # Number of times the CC registers were written (Count)
system.timingCpu1.exec_context.thread_0.numMiscRegReads    578808697                       # Number of times the Misc registers were read (Count)
system.timingCpu1.exec_context.thread_0.numMiscRegWrites        71645                       # Number of times the Misc registers were written (Count)
system.timingCpu1.exec_context.thread_0.numMemRefs    291000667                       # Number of memory refs (Count)
system.timingCpu1.exec_context.thread_0.numLoadInsts    281714414                       # Number of load instructions (Count)
system.timingCpu1.exec_context.thread_0.numStoreInsts      9286253                       # Number of store instructions (Count)
system.timingCpu1.exec_context.thread_0.numIdleCycles            0                       # Number of idle cycles (Cycle)
system.timingCpu1.exec_context.thread_0.numBusyCycles   7880378743                       # Number of busy cycles (Cycle)
system.timingCpu1.exec_context.thread_0.notIdleFraction            1                       # Percentage of non-idle cycles (Ratio)
system.timingCpu1.exec_context.thread_0.idleFraction            0                       # Percentage of idle cycles (Ratio)
system.timingCpu1.exec_context.thread_0.numBranches    143872778                       # Number of branches fetched (Count)
system.timingCpu1.exec_context.thread_0.statExecutedInstType::No_OpClass      2660885      0.18%      0.18% # Class of executed instruction. (Count)
system.timingCpu1.exec_context.thread_0.statExecutedInstType::IntAlu    981844487     66.70%     66.88% # Class of executed instruction. (Count)
system.timingCpu1.exec_context.thread_0.statExecutedInstType::IntMult        46382      0.00%     66.88% # Class of executed instruction. (Count)
system.timingCpu1.exec_context.thread_0.statExecutedInstType::IntDiv        87360      0.01%     66.89% # Class of executed instruction. (Count)
system.timingCpu1.exec_context.thread_0.statExecutedInstType::FloatAdd     16229189      1.10%     67.99% # Class of executed instruction. (Count)
system.timingCpu1.exec_context.thread_0.statExecutedInstType::FloatCmp            0      0.00%     67.99% # Class of executed instruction. (Count)
system.timingCpu1.exec_context.thread_0.statExecutedInstType::FloatCvt          240      0.00%     67.99% # Class of executed instruction. (Count)
system.timingCpu1.exec_context.thread_0.statExecutedInstType::FloatMult            0      0.00%     67.99% # Class of executed instruction. (Count)
system.timingCpu1.exec_context.thread_0.statExecutedInstType::FloatMultAcc            0      0.00%     67.99% # Class of executed instruction. (Count)
system.timingCpu1.exec_context.thread_0.statExecutedInstType::FloatDiv            0      0.00%     67.99% # Class of executed instruction. (Count)
system.timingCpu1.exec_context.thread_0.statExecutedInstType::FloatMisc            0      0.00%     67.99% # Class of executed instruction. (Count)
system.timingCpu1.exec_context.thread_0.statExecutedInstType::FloatSqrt            0      0.00%     67.99% # Class of executed instruction. (Count)
system.timingCpu1.exec_context.thread_0.statExecutedInstType::SimdAdd           98      0.00%     67.99% # Class of executed instruction. (Count)
system.timingCpu1.exec_context.thread_0.statExecutedInstType::SimdAddAcc            0      0.00%     67.99% # Class of executed instruction. (Count)
system.timingCpu1.exec_context.thread_0.statExecutedInstType::SimdAlu     24166380      1.64%     69.63% # Class of executed instruction. (Count)
system.timingCpu1.exec_context.thread_0.statExecutedInstType::SimdCmp            0      0.00%     69.63% # Class of executed instruction. (Count)
system.timingCpu1.exec_context.thread_0.statExecutedInstType::SimdCvt          532      0.00%     69.63% # Class of executed instruction. (Count)
system.timingCpu1.exec_context.thread_0.statExecutedInstType::SimdMisc      3687716      0.25%     69.88% # Class of executed instruction. (Count)
system.timingCpu1.exec_context.thread_0.statExecutedInstType::SimdMult            0      0.00%     69.88% # Class of executed instruction. (Count)
system.timingCpu1.exec_context.thread_0.statExecutedInstType::SimdMultAcc            0      0.00%     69.88% # Class of executed instruction. (Count)
system.timingCpu1.exec_context.thread_0.statExecutedInstType::SimdShift           80      0.00%     69.88% # Class of executed instruction. (Count)
system.timingCpu1.exec_context.thread_0.statExecutedInstType::SimdShiftAcc            0      0.00%     69.88% # Class of executed instruction. (Count)
system.timingCpu1.exec_context.thread_0.statExecutedInstType::SimdDiv            0      0.00%     69.88% # Class of executed instruction. (Count)
system.timingCpu1.exec_context.thread_0.statExecutedInstType::SimdSqrt            0      0.00%     69.88% # Class of executed instruction. (Count)
system.timingCpu1.exec_context.thread_0.statExecutedInstType::SimdFloatAdd    138161542      9.39%     79.27% # Class of executed instruction. (Count)
system.timingCpu1.exec_context.thread_0.statExecutedInstType::SimdFloatAlu            0      0.00%     79.27% # Class of executed instruction. (Count)
system.timingCpu1.exec_context.thread_0.statExecutedInstType::SimdFloatCmp            0      0.00%     79.27% # Class of executed instruction. (Count)
system.timingCpu1.exec_context.thread_0.statExecutedInstType::SimdFloatCvt      7884903      0.54%     79.81% # Class of executed instruction. (Count)
system.timingCpu1.exec_context.thread_0.statExecutedInstType::SimdFloatDiv      3687019      0.25%     80.06% # Class of executed instruction. (Count)
system.timingCpu1.exec_context.thread_0.statExecutedInstType::SimdFloatMisc            0      0.00%     80.06% # Class of executed instruction. (Count)
system.timingCpu1.exec_context.thread_0.statExecutedInstType::SimdFloatMult      2584850      0.18%     80.23% # Class of executed instruction. (Count)
system.timingCpu1.exec_context.thread_0.statExecutedInstType::SimdFloatMultAcc            0      0.00%     80.23% # Class of executed instruction. (Count)
system.timingCpu1.exec_context.thread_0.statExecutedInstType::SimdFloatSqrt            0      0.00%     80.23% # Class of executed instruction. (Count)
system.timingCpu1.exec_context.thread_0.statExecutedInstType::SimdReduceAdd            0      0.00%     80.23% # Class of executed instruction. (Count)
system.timingCpu1.exec_context.thread_0.statExecutedInstType::SimdReduceAlu            0      0.00%     80.23% # Class of executed instruction. (Count)
system.timingCpu1.exec_context.thread_0.statExecutedInstType::SimdReduceCmp            0      0.00%     80.23% # Class of executed instruction. (Count)
system.timingCpu1.exec_context.thread_0.statExecutedInstType::SimdFloatReduceAdd            0      0.00%     80.23% # Class of executed instruction. (Count)
system.timingCpu1.exec_context.thread_0.statExecutedInstType::SimdFloatReduceCmp            0      0.00%     80.23% # Class of executed instruction. (Count)
system.timingCpu1.exec_context.thread_0.statExecutedInstType::SimdAes            0      0.00%     80.23% # Class of executed instruction. (Count)
system.timingCpu1.exec_context.thread_0.statExecutedInstType::SimdAesMix            0      0.00%     80.23% # Class of executed instruction. (Count)
system.timingCpu1.exec_context.thread_0.statExecutedInstType::SimdSha1Hash            0      0.00%     80.23% # Class of executed instruction. (Count)
system.timingCpu1.exec_context.thread_0.statExecutedInstType::SimdSha1Hash2            0      0.00%     80.23% # Class of executed instruction. (Count)
system.timingCpu1.exec_context.thread_0.statExecutedInstType::SimdSha256Hash            0      0.00%     80.23% # Class of executed instruction. (Count)
system.timingCpu1.exec_context.thread_0.statExecutedInstType::SimdSha256Hash2            0      0.00%     80.23% # Class of executed instruction. (Count)
system.timingCpu1.exec_context.thread_0.statExecutedInstType::SimdShaSigma2            0      0.00%     80.23% # Class of executed instruction. (Count)
system.timingCpu1.exec_context.thread_0.statExecutedInstType::SimdShaSigma3            0      0.00%     80.23% # Class of executed instruction. (Count)
system.timingCpu1.exec_context.thread_0.statExecutedInstType::SimdPredAlu            0      0.00%     80.23% # Class of executed instruction. (Count)
system.timingCpu1.exec_context.thread_0.statExecutedInstType::MemRead    147867198     10.05%     90.28% # Class of executed instruction. (Count)
system.timingCpu1.exec_context.thread_0.statExecutedInstType::MemWrite      1007161      0.07%     90.34% # Class of executed instruction. (Count)
system.timingCpu1.exec_context.thread_0.statExecutedInstType::FloatMemRead    133847216      9.09%     99.44% # Class of executed instruction. (Count)
system.timingCpu1.exec_context.thread_0.statExecutedInstType::FloatMemWrite      8279092      0.56%    100.00% # Class of executed instruction. (Count)
system.timingCpu1.exec_context.thread_0.statExecutedInstType::IprAccess            0      0.00%    100.00% # Class of executed instruction. (Count)
system.timingCpu1.exec_context.thread_0.statExecutedInstType::InstPrefetch            0      0.00%    100.00% # Class of executed instruction. (Count)
system.timingCpu1.exec_context.thread_0.statExecutedInstType::total   1472042330                       # Class of executed instruction. (Count)
system.timingCpu1.mmu.dtb.rdAccesses        330439184                       # TLB accesses on read requests (Count)
system.timingCpu1.mmu.dtb.wrAccesses          9355852                       # TLB accesses on write requests (Count)
system.timingCpu1.mmu.dtb.rdMisses           40744395                       # TLB misses on read requests (Count)
system.timingCpu1.mmu.dtb.wrMisses              70007                       # TLB misses on write requests (Count)
system.timingCpu1.mmu.dtb.walker.power_state.pwrStateResidencyTicks::UNDEFINED 160293367505501                       # Cumulative time (in ticks) in various power states (Tick)
system.timingCpu1.mmu.itb.rdAccesses                0                       # TLB accesses on read requests (Count)
system.timingCpu1.mmu.itb.wrAccesses       1057875344                       # TLB accesses on write requests (Count)
system.timingCpu1.mmu.itb.rdMisses                  0                       # TLB misses on read requests (Count)
system.timingCpu1.mmu.itb.wrMisses               8375                       # TLB misses on write requests (Count)
system.timingCpu1.mmu.itb.walker.power_state.pwrStateResidencyTicks::UNDEFINED 160293367505501                       # Cumulative time (in ticks) in various power states (Tick)
system.timingCpu1.power_state.pwrStateResidencyTicks::OFF 160293367505501                       # Cumulative time (in ticks) in various power states (Tick)
system.timingCpu1.thread_0.numInsts                 0                       # Number of Instructions committed (Count)
system.timingCpu1.thread_0.numOps                   0                       # Number of Ops committed (Count)
system.timingCpu1.thread_0.numMemRefs               0                       # Number of Memory References (Count)
system.workload.inst.arm                            0                       # number of arm instructions executed (Count)
system.workload.inst.quiesce                        0                       # number of quiesce instructions executed (Count)

---------- End Simulation Statistics   ----------
