
---------- Begin Simulation Statistics ----------
simSeconds                                          5                       # Number of seconds simulated (Second)
simTicks                                 5000000000000                       # Number of ticks simulated (Tick)
finalTick                                28844873365250                       # Number of ticks from beginning of simulation (restored from checkpoints and never reset) (Tick)
simFreq                                  1000000000000                       # The number of ticks per simulated second ((Tick/Second))
hostSeconds                                  15063.12                       # Real time elapsed on the host (Second)
hostTickRate                                331936552                       # The number of ticks simulated per host second (ticks/s) ((Tick/Second))
hostMemory                                    8262548                       # Number of bytes of host memory used (Byte)
simInsts                                 100601952996                       # Number of instructions simulated (Count)
simOps                                   102486103115                       # Number of ops (including micro ops) simulated (Count)
hostInstRate                                  6678693                       # Simulator instruction rate (inst/s) ((Count/Second))
hostOpRate                                    6803777                       # Simulator op (including micro ops) rate (op/s) ((Count/Second))
system.atomicCpu0.numCycles                         0                       # Number of cpu cycles simulated (Cycle)
system.atomicCpu0.numWorkItemsStarted               0                       # Number of work items this cpu started (Count)
system.atomicCpu0.numWorkItemsCompleted             0                       # Number of work items this cpu completed (Count)
system.atomicCpu0.exec_context.thread_0.numInsts            0                       # Number of instructions committed (Count)
system.atomicCpu0.exec_context.thread_0.numOps            0                       # Number of ops (including micro ops) committed (Count)
system.atomicCpu0.exec_context.thread_0.numIntAluAccesses            0                       # Number of integer alu accesses (Count)
system.atomicCpu0.exec_context.thread_0.numFpAluAccesses            0                       # Number of float alu accesses (Count)
system.atomicCpu0.exec_context.thread_0.numVecAluAccesses            0                       # Number of vector alu accesses (Count)
system.atomicCpu0.exec_context.thread_0.numCallsReturns            0                       # Number of times a function call or return occured (Count)
system.atomicCpu0.exec_context.thread_0.numCondCtrlInsts            0                       # Number of instructions that are conditional controls (Count)
system.atomicCpu0.exec_context.thread_0.numIntInsts            0                       # Number of integer instructions (Count)
system.atomicCpu0.exec_context.thread_0.numFpInsts            0                       # Number of float instructions (Count)
system.atomicCpu0.exec_context.thread_0.numVecInsts            0                       # Number of vector instructions (Count)
system.atomicCpu0.exec_context.thread_0.numIntRegReads            0                       # Number of times the integer registers were read (Count)
system.atomicCpu0.exec_context.thread_0.numIntRegWrites            0                       # Number of times the integer registers were written (Count)
system.atomicCpu0.exec_context.thread_0.numFpRegReads            0                       # Number of times the floating registers were read (Count)
system.atomicCpu0.exec_context.thread_0.numFpRegWrites            0                       # Number of times the floating registers were written (Count)
system.atomicCpu0.exec_context.thread_0.numVecRegReads            0                       # Number of times the vector registers were read (Count)
system.atomicCpu0.exec_context.thread_0.numVecRegWrites            0                       # Number of times the vector registers were written (Count)
system.atomicCpu0.exec_context.thread_0.numVecPredRegReads            0                       # Number of times the predicate registers were read (Count)
system.atomicCpu0.exec_context.thread_0.numVecPredRegWrites            0                       # Number of times the predicate registers were written (Count)
system.atomicCpu0.exec_context.thread_0.numMiscRegReads            0                       # Number of times the Misc registers were read (Count)
system.atomicCpu0.exec_context.thread_0.numMiscRegWrites            0                       # Number of times the Misc registers were written (Count)
system.atomicCpu0.exec_context.thread_0.numMemRefs            0                       # Number of memory refs (Count)
system.atomicCpu0.exec_context.thread_0.numLoadInsts            0                       # Number of load instructions (Count)
system.atomicCpu0.exec_context.thread_0.numStoreInsts            0                       # Number of store instructions (Count)
system.atomicCpu0.exec_context.thread_0.numIdleCycles            0                       # Number of idle cycles (Cycle)
system.atomicCpu0.exec_context.thread_0.numBusyCycles            0                       # Number of busy cycles (Cycle)
system.atomicCpu0.exec_context.thread_0.notIdleFraction            0                       # Percentage of non-idle cycles (Ratio)
system.atomicCpu0.exec_context.thread_0.idleFraction            1                       # Percentage of idle cycles (Ratio)
system.atomicCpu0.exec_context.thread_0.statExecutedInstType::No_OpClass            0                       # Class of executed instruction. (Count)
system.atomicCpu0.exec_context.thread_0.statExecutedInstType::IntAlu            0                       # Class of executed instruction. (Count)
system.atomicCpu0.exec_context.thread_0.statExecutedInstType::IntMult            0                       # Class of executed instruction. (Count)
system.atomicCpu0.exec_context.thread_0.statExecutedInstType::IntDiv            0                       # Class of executed instruction. (Count)
system.atomicCpu0.exec_context.thread_0.statExecutedInstType::FloatAdd            0                       # Class of executed instruction. (Count)
system.atomicCpu0.exec_context.thread_0.statExecutedInstType::FloatCmp            0                       # Class of executed instruction. (Count)
system.atomicCpu0.exec_context.thread_0.statExecutedInstType::FloatCvt            0                       # Class of executed instruction. (Count)
system.atomicCpu0.exec_context.thread_0.statExecutedInstType::FloatMult            0                       # Class of executed instruction. (Count)
system.atomicCpu0.exec_context.thread_0.statExecutedInstType::FloatMultAcc            0                       # Class of executed instruction. (Count)
system.atomicCpu0.exec_context.thread_0.statExecutedInstType::FloatDiv            0                       # Class of executed instruction. (Count)
system.atomicCpu0.exec_context.thread_0.statExecutedInstType::FloatMisc            0                       # Class of executed instruction. (Count)
system.atomicCpu0.exec_context.thread_0.statExecutedInstType::FloatSqrt            0                       # Class of executed instruction. (Count)
system.atomicCpu0.exec_context.thread_0.statExecutedInstType::SimdAdd            0                       # Class of executed instruction. (Count)
system.atomicCpu0.exec_context.thread_0.statExecutedInstType::SimdAddAcc            0                       # Class of executed instruction. (Count)
system.atomicCpu0.exec_context.thread_0.statExecutedInstType::SimdAlu            0                       # Class of executed instruction. (Count)
system.atomicCpu0.exec_context.thread_0.statExecutedInstType::SimdCmp            0                       # Class of executed instruction. (Count)
system.atomicCpu0.exec_context.thread_0.statExecutedInstType::SimdCvt            0                       # Class of executed instruction. (Count)
system.atomicCpu0.exec_context.thread_0.statExecutedInstType::SimdMisc            0                       # Class of executed instruction. (Count)
system.atomicCpu0.exec_context.thread_0.statExecutedInstType::SimdMult            0                       # Class of executed instruction. (Count)
system.atomicCpu0.exec_context.thread_0.statExecutedInstType::SimdMultAcc            0                       # Class of executed instruction. (Count)
system.atomicCpu0.exec_context.thread_0.statExecutedInstType::SimdShift            0                       # Class of executed instruction. (Count)
system.atomicCpu0.exec_context.thread_0.statExecutedInstType::SimdShiftAcc            0                       # Class of executed instruction. (Count)
system.atomicCpu0.exec_context.thread_0.statExecutedInstType::SimdDiv            0                       # Class of executed instruction. (Count)
system.atomicCpu0.exec_context.thread_0.statExecutedInstType::SimdSqrt            0                       # Class of executed instruction. (Count)
system.atomicCpu0.exec_context.thread_0.statExecutedInstType::SimdFloatAdd            0                       # Class of executed instruction. (Count)
system.atomicCpu0.exec_context.thread_0.statExecutedInstType::SimdFloatAlu            0                       # Class of executed instruction. (Count)
system.atomicCpu0.exec_context.thread_0.statExecutedInstType::SimdFloatCmp            0                       # Class of executed instruction. (Count)
system.atomicCpu0.exec_context.thread_0.statExecutedInstType::SimdFloatCvt            0                       # Class of executed instruction. (Count)
system.atomicCpu0.exec_context.thread_0.statExecutedInstType::SimdFloatDiv            0                       # Class of executed instruction. (Count)
system.atomicCpu0.exec_context.thread_0.statExecutedInstType::SimdFloatMisc            0                       # Class of executed instruction. (Count)
system.atomicCpu0.exec_context.thread_0.statExecutedInstType::SimdFloatMult            0                       # Class of executed instruction. (Count)
system.atomicCpu0.exec_context.thread_0.statExecutedInstType::SimdFloatMultAcc            0                       # Class of executed instruction. (Count)
system.atomicCpu0.exec_context.thread_0.statExecutedInstType::SimdFloatSqrt            0                       # Class of executed instruction. (Count)
system.atomicCpu0.exec_context.thread_0.statExecutedInstType::SimdReduceAdd            0                       # Class of executed instruction. (Count)
system.atomicCpu0.exec_context.thread_0.statExecutedInstType::SimdReduceAlu            0                       # Class of executed instruction. (Count)
system.atomicCpu0.exec_context.thread_0.statExecutedInstType::SimdReduceCmp            0                       # Class of executed instruction. (Count)
system.atomicCpu0.exec_context.thread_0.statExecutedInstType::SimdFloatReduceAdd            0                       # Class of executed instruction. (Count)
system.atomicCpu0.exec_context.thread_0.statExecutedInstType::SimdFloatReduceCmp            0                       # Class of executed instruction. (Count)
system.atomicCpu0.exec_context.thread_0.statExecutedInstType::SimdAes            0                       # Class of executed instruction. (Count)
system.atomicCpu0.exec_context.thread_0.statExecutedInstType::SimdAesMix            0                       # Class of executed instruction. (Count)
system.atomicCpu0.exec_context.thread_0.statExecutedInstType::SimdSha1Hash            0                       # Class of executed instruction. (Count)
system.atomicCpu0.exec_context.thread_0.statExecutedInstType::SimdSha1Hash2            0                       # Class of executed instruction. (Count)
system.atomicCpu0.exec_context.thread_0.statExecutedInstType::SimdSha256Hash            0                       # Class of executed instruction. (Count)
system.atomicCpu0.exec_context.thread_0.statExecutedInstType::SimdSha256Hash2            0                       # Class of executed instruction. (Count)
system.atomicCpu0.exec_context.thread_0.statExecutedInstType::SimdShaSigma2            0                       # Class of executed instruction. (Count)
system.atomicCpu0.exec_context.thread_0.statExecutedInstType::SimdShaSigma3            0                       # Class of executed instruction. (Count)
system.atomicCpu0.exec_context.thread_0.statExecutedInstType::SimdPredAlu            0                       # Class of executed instruction. (Count)
system.atomicCpu0.exec_context.thread_0.statExecutedInstType::MemRead            0                       # Class of executed instruction. (Count)
system.atomicCpu0.exec_context.thread_0.statExecutedInstType::MemWrite            0                       # Class of executed instruction. (Count)
system.atomicCpu0.exec_context.thread_0.statExecutedInstType::FloatMemRead            0                       # Class of executed instruction. (Count)
system.atomicCpu0.exec_context.thread_0.statExecutedInstType::FloatMemWrite            0                       # Class of executed instruction. (Count)
system.atomicCpu0.exec_context.thread_0.statExecutedInstType::IprAccess            0                       # Class of executed instruction. (Count)
system.atomicCpu0.exec_context.thread_0.statExecutedInstType::InstPrefetch            0                       # Class of executed instruction. (Count)
system.atomicCpu0.exec_context.thread_0.statExecutedInstType::total            0                       # Class of executed instruction. (Count)
system.atomicCpu0.mmu.dtb.rdAccesses                0                       # TLB accesses on read requests (Count)
system.atomicCpu0.mmu.dtb.wrAccesses                0                       # TLB accesses on write requests (Count)
system.atomicCpu0.mmu.dtb.rdMisses                  0                       # TLB misses on read requests (Count)
system.atomicCpu0.mmu.dtb.wrMisses                  0                       # TLB misses on write requests (Count)
system.atomicCpu0.mmu.dtb.walker.power_state.pwrStateResidencyTicks::UNDEFINED 28844873365250                       # Cumulative time (in ticks) in various power states (Tick)
system.atomicCpu0.mmu.itb.rdAccesses                0                       # TLB accesses on read requests (Count)
system.atomicCpu0.mmu.itb.wrAccesses                0                       # TLB accesses on write requests (Count)
system.atomicCpu0.mmu.itb.rdMisses                  0                       # TLB misses on read requests (Count)
system.atomicCpu0.mmu.itb.wrMisses                  0                       # TLB misses on write requests (Count)
system.atomicCpu0.mmu.itb.walker.power_state.pwrStateResidencyTicks::UNDEFINED 28844873365250                       # Cumulative time (in ticks) in various power states (Tick)
system.atomicCpu0.power_state.pwrStateResidencyTicks::OFF 28844873365250                       # Cumulative time (in ticks) in various power states (Tick)
system.atomicCpu0.thread_0.numInsts                 0                       # Number of Instructions committed (Count)
system.atomicCpu0.thread_0.numOps                   0                       # Number of Ops committed (Count)
system.atomicCpu0.thread_0.numMemRefs               0                       # Number of Memory References (Count)
system.atomicCpu1.numCycles                         0                       # Number of cpu cycles simulated (Cycle)
system.atomicCpu1.numWorkItemsStarted               0                       # Number of work items this cpu started (Count)
system.atomicCpu1.numWorkItemsCompleted             0                       # Number of work items this cpu completed (Count)
system.atomicCpu1.exec_context.thread_0.numInsts            0                       # Number of instructions committed (Count)
system.atomicCpu1.exec_context.thread_0.numOps            0                       # Number of ops (including micro ops) committed (Count)
system.atomicCpu1.exec_context.thread_0.numIntAluAccesses            0                       # Number of integer alu accesses (Count)
system.atomicCpu1.exec_context.thread_0.numFpAluAccesses            0                       # Number of float alu accesses (Count)
system.atomicCpu1.exec_context.thread_0.numVecAluAccesses            0                       # Number of vector alu accesses (Count)
system.atomicCpu1.exec_context.thread_0.numCallsReturns            0                       # Number of times a function call or return occured (Count)
system.atomicCpu1.exec_context.thread_0.numCondCtrlInsts            0                       # Number of instructions that are conditional controls (Count)
system.atomicCpu1.exec_context.thread_0.numIntInsts            0                       # Number of integer instructions (Count)
system.atomicCpu1.exec_context.thread_0.numFpInsts            0                       # Number of float instructions (Count)
system.atomicCpu1.exec_context.thread_0.numVecInsts            0                       # Number of vector instructions (Count)
system.atomicCpu1.exec_context.thread_0.numIntRegReads            0                       # Number of times the integer registers were read (Count)
system.atomicCpu1.exec_context.thread_0.numIntRegWrites            0                       # Number of times the integer registers were written (Count)
system.atomicCpu1.exec_context.thread_0.numFpRegReads            0                       # Number of times the floating registers were read (Count)
system.atomicCpu1.exec_context.thread_0.numFpRegWrites            0                       # Number of times the floating registers were written (Count)
system.atomicCpu1.exec_context.thread_0.numVecRegReads            0                       # Number of times the vector registers were read (Count)
system.atomicCpu1.exec_context.thread_0.numVecRegWrites            0                       # Number of times the vector registers were written (Count)
system.atomicCpu1.exec_context.thread_0.numVecPredRegReads            0                       # Number of times the predicate registers were read (Count)
system.atomicCpu1.exec_context.thread_0.numVecPredRegWrites            0                       # Number of times the predicate registers were written (Count)
system.atomicCpu1.exec_context.thread_0.numMiscRegReads            0                       # Number of times the Misc registers were read (Count)
system.atomicCpu1.exec_context.thread_0.numMiscRegWrites            0                       # Number of times the Misc registers were written (Count)
system.atomicCpu1.exec_context.thread_0.numMemRefs            0                       # Number of memory refs (Count)
system.atomicCpu1.exec_context.thread_0.numLoadInsts            0                       # Number of load instructions (Count)
system.atomicCpu1.exec_context.thread_0.numStoreInsts            0                       # Number of store instructions (Count)
system.atomicCpu1.exec_context.thread_0.numIdleCycles            0                       # Number of idle cycles (Cycle)
system.atomicCpu1.exec_context.thread_0.numBusyCycles            0                       # Number of busy cycles (Cycle)
system.atomicCpu1.exec_context.thread_0.notIdleFraction            0                       # Percentage of non-idle cycles (Ratio)
system.atomicCpu1.exec_context.thread_0.idleFraction            1                       # Percentage of idle cycles (Ratio)
system.atomicCpu1.exec_context.thread_0.statExecutedInstType::No_OpClass            0                       # Class of executed instruction. (Count)
system.atomicCpu1.exec_context.thread_0.statExecutedInstType::IntAlu            0                       # Class of executed instruction. (Count)
system.atomicCpu1.exec_context.thread_0.statExecutedInstType::IntMult            0                       # Class of executed instruction. (Count)
system.atomicCpu1.exec_context.thread_0.statExecutedInstType::IntDiv            0                       # Class of executed instruction. (Count)
system.atomicCpu1.exec_context.thread_0.statExecutedInstType::FloatAdd            0                       # Class of executed instruction. (Count)
system.atomicCpu1.exec_context.thread_0.statExecutedInstType::FloatCmp            0                       # Class of executed instruction. (Count)
system.atomicCpu1.exec_context.thread_0.statExecutedInstType::FloatCvt            0                       # Class of executed instruction. (Count)
system.atomicCpu1.exec_context.thread_0.statExecutedInstType::FloatMult            0                       # Class of executed instruction. (Count)
system.atomicCpu1.exec_context.thread_0.statExecutedInstType::FloatMultAcc            0                       # Class of executed instruction. (Count)
system.atomicCpu1.exec_context.thread_0.statExecutedInstType::FloatDiv            0                       # Class of executed instruction. (Count)
system.atomicCpu1.exec_context.thread_0.statExecutedInstType::FloatMisc            0                       # Class of executed instruction. (Count)
system.atomicCpu1.exec_context.thread_0.statExecutedInstType::FloatSqrt            0                       # Class of executed instruction. (Count)
system.atomicCpu1.exec_context.thread_0.statExecutedInstType::SimdAdd            0                       # Class of executed instruction. (Count)
system.atomicCpu1.exec_context.thread_0.statExecutedInstType::SimdAddAcc            0                       # Class of executed instruction. (Count)
system.atomicCpu1.exec_context.thread_0.statExecutedInstType::SimdAlu            0                       # Class of executed instruction. (Count)
system.atomicCpu1.exec_context.thread_0.statExecutedInstType::SimdCmp            0                       # Class of executed instruction. (Count)
system.atomicCpu1.exec_context.thread_0.statExecutedInstType::SimdCvt            0                       # Class of executed instruction. (Count)
system.atomicCpu1.exec_context.thread_0.statExecutedInstType::SimdMisc            0                       # Class of executed instruction. (Count)
system.atomicCpu1.exec_context.thread_0.statExecutedInstType::SimdMult            0                       # Class of executed instruction. (Count)
system.atomicCpu1.exec_context.thread_0.statExecutedInstType::SimdMultAcc            0                       # Class of executed instruction. (Count)
system.atomicCpu1.exec_context.thread_0.statExecutedInstType::SimdShift            0                       # Class of executed instruction. (Count)
system.atomicCpu1.exec_context.thread_0.statExecutedInstType::SimdShiftAcc            0                       # Class of executed instruction. (Count)
system.atomicCpu1.exec_context.thread_0.statExecutedInstType::SimdDiv            0                       # Class of executed instruction. (Count)
system.atomicCpu1.exec_context.thread_0.statExecutedInstType::SimdSqrt            0                       # Class of executed instruction. (Count)
system.atomicCpu1.exec_context.thread_0.statExecutedInstType::SimdFloatAdd            0                       # Class of executed instruction. (Count)
system.atomicCpu1.exec_context.thread_0.statExecutedInstType::SimdFloatAlu            0                       # Class of executed instruction. (Count)
system.atomicCpu1.exec_context.thread_0.statExecutedInstType::SimdFloatCmp            0                       # Class of executed instruction. (Count)
system.atomicCpu1.exec_context.thread_0.statExecutedInstType::SimdFloatCvt            0                       # Class of executed instruction. (Count)
system.atomicCpu1.exec_context.thread_0.statExecutedInstType::SimdFloatDiv            0                       # Class of executed instruction. (Count)
system.atomicCpu1.exec_context.thread_0.statExecutedInstType::SimdFloatMisc            0                       # Class of executed instruction. (Count)
system.atomicCpu1.exec_context.thread_0.statExecutedInstType::SimdFloatMult            0                       # Class of executed instruction. (Count)
system.atomicCpu1.exec_context.thread_0.statExecutedInstType::SimdFloatMultAcc            0                       # Class of executed instruction. (Count)
system.atomicCpu1.exec_context.thread_0.statExecutedInstType::SimdFloatSqrt            0                       # Class of executed instruction. (Count)
system.atomicCpu1.exec_context.thread_0.statExecutedInstType::SimdReduceAdd            0                       # Class of executed instruction. (Count)
system.atomicCpu1.exec_context.thread_0.statExecutedInstType::SimdReduceAlu            0                       # Class of executed instruction. (Count)
system.atomicCpu1.exec_context.thread_0.statExecutedInstType::SimdReduceCmp            0                       # Class of executed instruction. (Count)
system.atomicCpu1.exec_context.thread_0.statExecutedInstType::SimdFloatReduceAdd            0                       # Class of executed instruction. (Count)
system.atomicCpu1.exec_context.thread_0.statExecutedInstType::SimdFloatReduceCmp            0                       # Class of executed instruction. (Count)
system.atomicCpu1.exec_context.thread_0.statExecutedInstType::SimdAes            0                       # Class of executed instruction. (Count)
system.atomicCpu1.exec_context.thread_0.statExecutedInstType::SimdAesMix            0                       # Class of executed instruction. (Count)
system.atomicCpu1.exec_context.thread_0.statExecutedInstType::SimdSha1Hash            0                       # Class of executed instruction. (Count)
system.atomicCpu1.exec_context.thread_0.statExecutedInstType::SimdSha1Hash2            0                       # Class of executed instruction. (Count)
system.atomicCpu1.exec_context.thread_0.statExecutedInstType::SimdSha256Hash            0                       # Class of executed instruction. (Count)
system.atomicCpu1.exec_context.thread_0.statExecutedInstType::SimdSha256Hash2            0                       # Class of executed instruction. (Count)
system.atomicCpu1.exec_context.thread_0.statExecutedInstType::SimdShaSigma2            0                       # Class of executed instruction. (Count)
system.atomicCpu1.exec_context.thread_0.statExecutedInstType::SimdShaSigma3            0                       # Class of executed instruction. (Count)
system.atomicCpu1.exec_context.thread_0.statExecutedInstType::SimdPredAlu            0                       # Class of executed instruction. (Count)
system.atomicCpu1.exec_context.thread_0.statExecutedInstType::MemRead            0                       # Class of executed instruction. (Count)
system.atomicCpu1.exec_context.thread_0.statExecutedInstType::MemWrite            0                       # Class of executed instruction. (Count)
system.atomicCpu1.exec_context.thread_0.statExecutedInstType::FloatMemRead            0                       # Class of executed instruction. (Count)
system.atomicCpu1.exec_context.thread_0.statExecutedInstType::FloatMemWrite            0                       # Class of executed instruction. (Count)
system.atomicCpu1.exec_context.thread_0.statExecutedInstType::IprAccess            0                       # Class of executed instruction. (Count)
system.atomicCpu1.exec_context.thread_0.statExecutedInstType::InstPrefetch            0                       # Class of executed instruction. (Count)
system.atomicCpu1.exec_context.thread_0.statExecutedInstType::total            0                       # Class of executed instruction. (Count)
system.atomicCpu1.mmu.dtb.rdAccesses                0                       # TLB accesses on read requests (Count)
system.atomicCpu1.mmu.dtb.wrAccesses                0                       # TLB accesses on write requests (Count)
system.atomicCpu1.mmu.dtb.rdMisses                  0                       # TLB misses on read requests (Count)
system.atomicCpu1.mmu.dtb.wrMisses                  0                       # TLB misses on write requests (Count)
system.atomicCpu1.mmu.dtb.walker.power_state.pwrStateResidencyTicks::UNDEFINED 28844873365250                       # Cumulative time (in ticks) in various power states (Tick)
system.atomicCpu1.mmu.itb.rdAccesses                0                       # TLB accesses on read requests (Count)
system.atomicCpu1.mmu.itb.wrAccesses                0                       # TLB accesses on write requests (Count)
system.atomicCpu1.mmu.itb.rdMisses                  0                       # TLB misses on read requests (Count)
system.atomicCpu1.mmu.itb.wrMisses                  0                       # TLB misses on write requests (Count)
system.atomicCpu1.mmu.itb.walker.power_state.pwrStateResidencyTicks::UNDEFINED 28844873365250                       # Cumulative time (in ticks) in various power states (Tick)
system.atomicCpu1.power_state.pwrStateResidencyTicks::OFF 28844873365250                       # Cumulative time (in ticks) in various power states (Tick)
system.atomicCpu1.thread_0.numInsts                 0                       # Number of Instructions committed (Count)
system.atomicCpu1.thread_0.numOps                   0                       # Number of Ops committed (Count)
system.atomicCpu1.thread_0.numMemRefs               0                       # Number of Memory References (Count)
system.caches.delayHistogram::bucket_size           64                       # delay histogram for all message (Unspecified)
system.caches.delayHistogram::max_bucket          639                       # delay histogram for all message (Unspecified)
system.caches.delayHistogram::samples       802351844                       # delay histogram for all message (Unspecified)
system.caches.delayHistogram::mean           0.012681                       # delay histogram for all message (Unspecified)
system.caches.delayHistogram::stdev          0.310175                       # delay histogram for all message (Unspecified)
system.caches.delayHistogram             |   802351842    100.00%    100.00% |           0      0.00%    100.00% |           0      0.00%    100.00% |           0      0.00%    100.00% |           0      0.00%    100.00% |           0      0.00%    100.00% |           0      0.00%    100.00% |           0      0.00%    100.00% |           2      0.00%    100.00% |           0      0.00%    100.00% # delay histogram for all message (Unspecified)
system.caches.delayHistogram::total         802351844                       # delay histogram for all message (Unspecified)
system.caches.m_outstandReqHistSeqr::bucket_size            1                       (Unspecified)
system.caches.m_outstandReqHistSeqr::max_bucket            9                       (Unspecified)
system.caches.m_outstandReqHistSeqr::samples   4070797137                       (Unspecified)
system.caches.m_outstandReqHistSeqr::mean     1.000000                       (Unspecified)
system.caches.m_outstandReqHistSeqr::gmean     1.000000                       (Unspecified)
system.caches.m_outstandReqHistSeqr::stdev     0.000100                       (Unspecified)
system.caches.m_outstandReqHistSeqr      |           0      0.00%      0.00% |  4070797096    100.00%    100.00% |          41      0.00%    100.00% |           0      0.00%    100.00% |           0      0.00%    100.00% |           0      0.00%    100.00% |           0      0.00%    100.00% |           0      0.00%    100.00% |           0      0.00%    100.00% |           0      0.00%    100.00% (Unspecified)
system.caches.m_outstandReqHistSeqr::total   4070797137                       (Unspecified)
system.caches.m_latencyHistSeqr::bucket_size          512                       (Unspecified)
system.caches.m_latencyHistSeqr::max_bucket         5119                       (Unspecified)
system.caches.m_latencyHistSeqr::samples   4070797135                       (Unspecified)
system.caches.m_latencyHistSeqr::mean        8.824559                       (Unspecified)
system.caches.m_latencyHistSeqr::gmean       1.236247                       (Unspecified)
system.caches.m_latencyHistSeqr::stdev      65.743147                       (Unspecified)
system.caches.m_latencyHistSeqr          |  4059483409     99.72%     99.72% |    10022182      0.25%     99.97% |      105883      0.00%     99.97% |     1130759      0.03%    100.00% |       54716      0.00%    100.00% |         186      0.00%    100.00% |           0      0.00%    100.00% |           0      0.00%    100.00% |           0      0.00%    100.00% |           0      0.00%    100.00% (Unspecified)
system.caches.m_latencyHistSeqr::total     4070797135                       (Unspecified)
system.caches.m_hitLatencyHistSeqr::bucket_size            1                       (Unspecified)
system.caches.m_hitLatencyHistSeqr::max_bucket            9                       (Unspecified)
system.caches.m_hitLatencyHistSeqr::samples   3815545890                       (Unspecified)
system.caches.m_hitLatencyHistSeqr::mean            1                       (Unspecified)
system.caches.m_hitLatencyHistSeqr::gmean            1                       (Unspecified)
system.caches.m_hitLatencyHistSeqr       |           0      0.00%      0.00% |  3815545890    100.00%    100.00% |           0      0.00%    100.00% |           0      0.00%    100.00% |           0      0.00%    100.00% |           0      0.00%    100.00% |           0      0.00%    100.00% |           0      0.00%    100.00% |           0      0.00%    100.00% |           0      0.00%    100.00% (Unspecified)
system.caches.m_hitLatencyHistSeqr::total   3815545890                       (Unspecified)
system.caches.m_missLatencyHistSeqr::bucket_size          512                       (Unspecified)
system.caches.m_missLatencyHistSeqr::max_bucket         5119                       (Unspecified)
system.caches.m_missLatencyHistSeqr::samples    255251245                       (Unspecified)
system.caches.m_missLatencyHistSeqr::mean   125.787606                       (Unspecified)
system.caches.m_missLatencyHistSeqr::gmean    29.438239                       (Unspecified)
system.caches.m_missLatencyHistSeqr::stdev   233.098999                       (Unspecified)
system.caches.m_missLatencyHistSeqr      |   243937519     95.57%     95.57% |    10022182      3.93%     99.49% |      105883      0.04%     99.54% |     1130759      0.44%     99.98% |       54716      0.02%    100.00% |         186      0.00%    100.00% |           0      0.00%    100.00% |           0      0.00%    100.00% |           0      0.00%    100.00% |           0      0.00%    100.00% (Unspecified)
system.caches.m_missLatencyHistSeqr::total    255251245                       (Unspecified)
system.caches.delayVCHist.vnet_0::bucket_size           64                       # delay histogram for vnet_0 (Unspecified)
system.caches.delayVCHist.vnet_0::max_bucket          639                       # delay histogram for vnet_0 (Unspecified)
system.caches.delayVCHist.vnet_0::samples    373102633                       # delay histogram for vnet_0 (Unspecified)
system.caches.delayVCHist.vnet_0::mean       0.026976                       # delay histogram for vnet_0 (Unspecified)
system.caches.delayVCHist.vnet_0::stdev      0.453100                       # delay histogram for vnet_0 (Unspecified)
system.caches.delayVCHist.vnet_0         |   373102631    100.00%    100.00% |           0      0.00%    100.00% |           0      0.00%    100.00% |           0      0.00%    100.00% |           0      0.00%    100.00% |           0      0.00%    100.00% |           0      0.00%    100.00% |           0      0.00%    100.00% |           2      0.00%    100.00% |           0      0.00%    100.00% # delay histogram for vnet_0 (Unspecified)
system.caches.delayVCHist.vnet_0::total     373102633                       # delay histogram for vnet_0 (Unspecified)
system.caches.delayVCHist.vnet_1::bucket_size            1                       # delay histogram for vnet_1 (Unspecified)
system.caches.delayVCHist.vnet_1::max_bucket            9                       # delay histogram for vnet_1 (Unspecified)
system.caches.delayVCHist.vnet_1::samples    428760096                       # delay histogram for vnet_1 (Unspecified)
system.caches.delayVCHist.vnet_1::mean       0.000255                       # delay histogram for vnet_1 (Unspecified)
system.caches.delayVCHist.vnet_1::stdev      0.032473                       # delay histogram for vnet_1 (Unspecified)
system.caches.delayVCHist.vnet_1         |   428730864     99.99%     99.99% |           0      0.00%     99.99% |        7577      0.00%     99.99% |           0      0.00%     99.99% |       18043      0.00%    100.00% |           0      0.00%    100.00% |        3500      0.00%    100.00% |           0      0.00%    100.00% |         112      0.00%    100.00% |           0      0.00%    100.00% # delay histogram for vnet_1 (Unspecified)
system.caches.delayVCHist.vnet_1::total     428760096                       # delay histogram for vnet_1 (Unspecified)
system.caches.delayVCHist.vnet_2::bucket_size            1                       # delay histogram for vnet_2 (Unspecified)
system.caches.delayVCHist.vnet_2::max_bucket            9                       # delay histogram for vnet_2 (Unspecified)
system.caches.delayVCHist.vnet_2::samples       489115                       # delay histogram for vnet_2 (Unspecified)
system.caches.delayVCHist.vnet_2::mean       0.000568                       # delay histogram for vnet_2 (Unspecified)
system.caches.delayVCHist.vnet_2::stdev      0.033711                       # delay histogram for vnet_2 (Unspecified)
system.caches.delayVCHist.vnet_2         |      488976     99.97%     99.97% |           0      0.00%     99.97% |         139      0.03%    100.00% |           0      0.00%    100.00% |           0      0.00%    100.00% |           0      0.00%    100.00% |           0      0.00%    100.00% |           0      0.00%    100.00% |           0      0.00%    100.00% |           0      0.00%    100.00% # delay histogram for vnet_2 (Unspecified)
system.caches.delayVCHist.vnet_2::total        489115                       # delay histogram for vnet_2 (Unspecified)
system.caches.L1Cache_Controller.Load    |   464975679     50.11%     50.11% |   462900915     49.89%    100.00% (Unspecified)
system.caches.L1Cache_Controller.Load::total    927876594                       (Unspecified)
system.caches.L1Cache_Controller.Ifetch  |  1573124857     50.21%     50.21% |  1559660617     49.79%    100.00% (Unspecified)
system.caches.L1Cache_Controller.Ifetch::total   3132785474                       (Unspecified)
system.caches.L1Cache_Controller.Store   |     5460791     53.88%     53.88% |     4674278     46.12%    100.00% (Unspecified)
system.caches.L1Cache_Controller.Store::total     10135069                       (Unspecified)
system.caches.L1Cache_Controller.Inv     |      123627     43.97%     43.97% |      157541     56.03%    100.00% (Unspecified)
system.caches.L1Cache_Controller.Inv::total       281168                       (Unspecified)
system.caches.L1Cache_Controller.L1_Replacement |   127498444     50.01%     50.01% |   127453343     49.99%    100.00% (Unspecified)
system.caches.L1Cache_Controller.L1_Replacement::total    254951787                       (Unspecified)
system.caches.L1Cache_Controller.Fwd_GETX |          52      3.94%      3.94% |        1268     96.06%    100.00% (Unspecified)
system.caches.L1Cache_Controller.Fwd_GETX::total         1320                       (Unspecified)
system.caches.L1Cache_Controller.Fwd_GETS |      121352     58.73%     58.73% |       85275     41.27%    100.00% (Unspecified)
system.caches.L1Cache_Controller.Fwd_GETS::total       206627                       (Unspecified)
system.caches.L1Cache_Controller.Data    |       12914     99.70%     99.70% |          39      0.30%    100.00% (Unspecified)
system.caches.L1Cache_Controller.Data::total        12953                       (Unspecified)
system.caches.L1Cache_Controller.Data_Exclusive |    29131498     50.00%     50.00% |    29133200     50.00%    100.00% (Unspecified)
system.caches.L1Cache_Controller.Data_Exclusive::total     58264698                       (Unspecified)
system.caches.L1Cache_Controller.DataS_fromL1 |       85275     41.27%     41.27% |      121352     58.73%    100.00% (Unspecified)
system.caches.L1Cache_Controller.DataS_fromL1::total       206627                       (Unspecified)
system.caches.L1Cache_Controller.Data_all_Acks |    98321704     50.01%     50.01% |    98271703     49.99%    100.00% (Unspecified)
system.caches.L1Cache_Controller.Data_all_Acks::total    196593407                       (Unspecified)
system.caches.L1Cache_Controller.Ack     |       98390     56.69%     56.69% |       75170     43.31%    100.00% (Unspecified)
system.caches.L1Cache_Controller.Ack::total       173560                       (Unspecified)
system.caches.L1Cache_Controller.Ack_all |      111304     59.68%     59.68% |       75209     40.32%    100.00% (Unspecified)
system.caches.L1Cache_Controller.Ack_all::total       186513                       (Unspecified)
system.caches.L1Cache_Controller.WB_Ack  |    29385665     50.05%     50.05% |    29331082     49.95%    100.00% (Unspecified)
system.caches.L1Cache_Controller.WB_Ack::total     58716747                       (Unspecified)
system.caches.L1Cache_Controller.NP.Load |   127092914     49.98%     49.98% |   127171161     50.02%    100.00% (Unspecified)
system.caches.L1Cache_Controller.NP.Load::total    254264075                       (Unspecified)
system.caches.L1Cache_Controller.NP.Ifetch |      135349     62.86%     62.86% |       79980     37.14%    100.00% (Unspecified)
system.caches.L1Cache_Controller.NP.Ifetch::total       215329                       (Unspecified)
system.caches.L1Cache_Controller.NP.Store |      278824     56.93%     56.93% |      210906     43.07%    100.00% (Unspecified)
system.caches.L1Cache_Controller.NP.Store::total       489730                       (Unspecified)
system.caches.L1Cache_Controller.NP.Inv  |       77881     46.88%     46.88% |       88234     53.12%    100.00% (Unspecified)
system.caches.L1Cache_Controller.NP.Inv::total       166115                       (Unspecified)
system.caches.L1Cache_Controller.I.Load  |          49      0.20%      0.20% |       24767     99.80%    100.00% (Unspecified)
system.caches.L1Cache_Controller.I.Load::total        24816                       (Unspecified)
system.caches.L1Cache_Controller.I.Ifetch |       44244     52.85%     52.85% |       39468     47.15%    100.00% (Unspecified)
system.caches.L1Cache_Controller.I.Ifetch::total        83712                       (Unspecified)
system.caches.L1Cache_Controller.I.Store |          12     52.17%     52.17% |          11     47.83%    100.00% (Unspecified)
system.caches.L1Cache_Controller.I.Store::total           23                       (Unspecified)
system.caches.L1Cache_Controller.I.L1_Replacement |        1242     17.00%     17.00% |        6062     83.00%    100.00% (Unspecified)
system.caches.L1Cache_Controller.I.L1_Replacement::total         7304                       (Unspecified)
system.caches.L1Cache_Controller.S.Load  |    56521281     50.49%     50.49% |    55422543     49.51%    100.00% (Unspecified)
system.caches.L1Cache_Controller.S.Load::total    111943824                       (Unspecified)
system.caches.L1Cache_Controller.S.Ifetch |  1572945264     50.21%     50.21% |  1559541169     49.79%    100.00% (Unspecified)
system.caches.L1Cache_Controller.S.Ifetch::total   3132486433                       (Unspecified)
system.caches.L1Cache_Controller.S.Store |       98390     56.69%     56.69% |       75172     43.31%    100.00% (Unspecified)
system.caches.L1Cache_Controller.S.Store::total       173562                       (Unspecified)
system.caches.L1Cache_Controller.S.Inv   |       45744     39.77%     39.77% |       69268     60.23%    100.00% (Unspecified)
system.caches.L1Cache_Controller.S.Inv::total       115012                       (Unspecified)
system.caches.L1Cache_Controller.S.L1_Replacement |    98111537     50.00%     50.00% |    98116199     50.00%    100.00% (Unspecified)
system.caches.L1Cache_Controller.S.L1_Replacement::total    196227736                       (Unspecified)
system.caches.L1Cache_Controller.E.Load  |   277193849     50.03%     50.03% |   276843526     49.97%    100.00% (Unspecified)
system.caches.L1Cache_Controller.E.Load::total    554037375                       (Unspecified)
system.caches.L1Cache_Controller.E.Store |      226817     52.96%     52.96% |      201472     47.04%    100.00% (Unspecified)
system.caches.L1Cache_Controller.E.Store::total       428289                       (Unspecified)
system.caches.L1Cache_Controller.E.Inv   |           1    100.00%    100.00% |           0      0.00%    100.00% (Unspecified)
system.caches.L1Cache_Controller.E.Inv::total            1                       (Unspecified)
system.caches.L1Cache_Controller.E.L1_Replacement |    28824732     49.98%     49.98% |    28851993     50.02%    100.00% (Unspecified)
system.caches.L1Cache_Controller.E.L1_Replacement::total     57676725                       (Unspecified)
system.caches.L1Cache_Controller.E.Fwd_GETX |           4      0.32%      0.32% |        1242     99.68%    100.00% (Unspecified)
system.caches.L1Cache_Controller.E.Fwd_GETX::total         1246                       (Unspecified)
system.caches.L1Cache_Controller.E.Fwd_GETS |       78297     50.47%     50.47% |       76834     49.53%    100.00% (Unspecified)
system.caches.L1Cache_Controller.E.Fwd_GETS::total       155131                       (Unspecified)
system.caches.L1Cache_Controller.M.Load  |     4167586     54.79%     54.79% |     3438918     45.21%    100.00% (Unspecified)
system.caches.L1Cache_Controller.M.Load::total      7606504                       (Unspecified)
system.caches.L1Cache_Controller.M.Store |     4856748     53.70%     53.70% |     4186717     46.30%    100.00% (Unspecified)
system.caches.L1Cache_Controller.M.Store::total      9043465                       (Unspecified)
system.caches.L1Cache_Controller.M.Inv   |           1     33.33%     33.33% |           2     66.67%    100.00% (Unspecified)
system.caches.L1Cache_Controller.M.Inv::total            3                       (Unspecified)
system.caches.L1Cache_Controller.M.L1_Replacement |      560933     53.93%     53.93% |      479089     46.07%    100.00% (Unspecified)
system.caches.L1Cache_Controller.M.L1_Replacement::total      1040022                       (Unspecified)
system.caches.L1Cache_Controller.M.Fwd_GETX |          48     64.86%     64.86% |          26     35.14%    100.00% (Unspecified)
system.caches.L1Cache_Controller.M.Fwd_GETX::total           74                       (Unspecified)
system.caches.L1Cache_Controller.M.Fwd_GETS |       43055     83.61%     83.61% |        8440     16.39%    100.00% (Unspecified)
system.caches.L1Cache_Controller.M.Fwd_GETS::total        51495                       (Unspecified)
system.caches.L1Cache_Controller.IS.Inv  |           0      0.00%      0.00% |          35    100.00%    100.00% (Unspecified)
system.caches.L1Cache_Controller.IS.Inv::total           35                       (Unspecified)
system.caches.L1Cache_Controller.IS.Data_Exclusive |    29131498     50.00%     50.00% |    29133200     50.00%    100.00% (Unspecified)
system.caches.L1Cache_Controller.IS.Data_Exclusive::total     58264698                       (Unspecified)
system.caches.L1Cache_Controller.IS.DataS_fromL1 |       85275     41.28%     41.28% |      121317     58.72%    100.00% (Unspecified)
system.caches.L1Cache_Controller.IS.DataS_fromL1::total       206592                       (Unspecified)
system.caches.L1Cache_Controller.IS.Data_all_Acks |    98055782     50.00%     50.00% |    98060823     50.00%    100.00% (Unspecified)
system.caches.L1Cache_Controller.IS.Data_all_Acks::total    196116605                       (Unspecified)
system.caches.L1Cache_Controller.IM.Data |       12914     99.70%     99.70% |          39      0.30%    100.00% (Unspecified)
system.caches.L1Cache_Controller.IM.Data::total        12953                       (Unspecified)
system.caches.L1Cache_Controller.IM.Data_all_Acks |      265922     55.77%     55.77% |      210880     44.23%    100.00% (Unspecified)
system.caches.L1Cache_Controller.IM.Data_all_Acks::total       476802                       (Unspecified)
system.caches.L1Cache_Controller.SM.Inv  |           0      0.00%      0.00% |           2    100.00%    100.00% (Unspecified)
system.caches.L1Cache_Controller.SM.Inv::total            2                       (Unspecified)
system.caches.L1Cache_Controller.SM.Ack  |       98390     56.69%     56.69% |       75170     43.31%    100.00% (Unspecified)
system.caches.L1Cache_Controller.SM.Ack::total       173560                       (Unspecified)
system.caches.L1Cache_Controller.SM.Ack_all |      111304     59.68%     59.68% |       75209     40.32%    100.00% (Unspecified)
system.caches.L1Cache_Controller.SM.Ack_all::total       186513                       (Unspecified)
system.caches.L1Cache_Controller.IS_I.DataS_fromL1 |           0      0.00%      0.00% |          35    100.00%    100.00% (Unspecified)
system.caches.L1Cache_Controller.IS_I.DataS_fromL1::total           35                       (Unspecified)
system.caches.L1Cache_Controller.M_I.Fwd_GETS |           0      0.00%      0.00% |           1    100.00%    100.00% (Unspecified)
system.caches.L1Cache_Controller.M_I.Fwd_GETS::total            1                       (Unspecified)
system.caches.L1Cache_Controller.M_I.WB_Ack |    29385665     50.05%     50.05% |    29331081     49.95%    100.00% (Unspecified)
system.caches.L1Cache_Controller.M_I.WB_Ack::total     58716746                       (Unspecified)
system.caches.L1Cache_Controller.SINK_WB_ACK.WB_Ack |           0      0.00%      0.00% |           1    100.00%    100.00% (Unspecified)
system.caches.L1Cache_Controller.SINK_WB_ACK.WB_Ack::total            1                       (Unspecified)
system.caches.Directory_Controller.Fetch     57217691      0.00%      0.00% (Unspecified)
system.caches.Directory_Controller.Data        424130      0.00%      0.00% (Unspecified)
system.caches.Directory_Controller.Memory_Data     57217690      0.00%      0.00% (Unspecified)
system.caches.Directory_Controller.Memory_Ack       424130      0.00%      0.00% (Unspecified)
system.caches.Directory_Controller.CleanReplacement     56662489      0.00%      0.00% (Unspecified)
system.caches.Directory_Controller.I.Fetch     57217691      0.00%      0.00% (Unspecified)
system.caches.Directory_Controller.M.Data       424130      0.00%      0.00% (Unspecified)
system.caches.Directory_Controller.M.CleanReplacement     56662489      0.00%      0.00% (Unspecified)
system.caches.Directory_Controller.IM.Memory_Data     57217690      0.00%      0.00% (Unspecified)
system.caches.Directory_Controller.MI.Memory_Ack       424130      0.00%      0.00% (Unspecified)
system.caches.L2Cache_Controller.L1_GET_INSTR |       15208      5.08%      5.08% |       49670     16.61%     21.69% |       41946     14.02%     35.72% |       11298      3.78%     39.49% |       29336      9.81%     49.30% |       44050     14.73%     64.03% |       54565     18.24%     82.27% |       53018     17.73%    100.00% (Unspecified)
system.caches.L2Cache_Controller.L1_GET_INSTR::total       299091                       (Unspecified)
system.caches.L2Cache_Controller.L1_GETS |    31907738     12.55%     12.55% |    31855104     12.53%     25.07% |    31773113     12.49%     37.57% |    31713615     12.47%     50.04% |    31811505     12.51%     62.55% |    31754582     12.49%     75.03% |    31734917     12.48%     87.51% |    31753527     12.49%    100.00% (Unspecified)
system.caches.L2Cache_Controller.L1_GETS::total    254304101                       (Unspecified)
system.caches.L2Cache_Controller.L1_GETX |       75162     15.35%     15.35% |       59899     12.23%     27.58% |       35081      7.16%     34.74% |       49865     10.18%     44.92% |       49962     10.20%     55.12% |       89857     18.35%     73.47% |       64938     13.26%     86.73% |       64993     13.27%    100.00% (Unspecified)
system.caches.L2Cache_Controller.L1_GETX::total       489757                       (Unspecified)
system.caches.L2Cache_Controller.L1_UPGRADE |       18773     10.07%     10.07% |       22825     12.24%     22.31% |       18689     10.02%     32.33% |       18653     10.00%     42.33% |       18666     10.01%     52.34% |       18656     10.00%     62.34% |       51451     27.59%     89.93% |       18772     10.07%    100.00% (Unspecified)
system.caches.L2Cache_Controller.L1_UPGRADE::total       186485                       (Unspecified)
system.caches.L2Cache_Controller.L1_PUTX |     7356535     12.53%     12.53% |     7359549     12.53%     25.06% |     7300479     12.43%     37.50% |     7317711     12.46%     49.96% |     7324669     12.47%     62.43% |     7365915     12.54%     74.98% |     7348307     12.51%     87.49% |     7343583     12.51%    100.00% (Unspecified)
system.caches.L2Cache_Controller.L1_PUTX::total     58716748                       (Unspecified)
system.caches.L2Cache_Controller.L2_Replacement |       53136     12.53%     12.53% |       52989     12.49%     25.02% |       53210     12.55%     37.57% |       52945     12.48%     50.05% |       52854     12.46%     62.51% |       53018     12.50%     75.01% |       52824     12.45%     87.47% |       53154     12.53%    100.00% (Unspecified)
system.caches.L2Cache_Controller.L2_Replacement::total       424130                       (Unspecified)
system.caches.L2Cache_Controller.L2_Replacement_clean |     7083805     12.50%     12.50% |     7083830     12.50%     25.00% |     7081986     12.50%     37.50% |     7081571     12.50%     50.00% |     7082868     12.50%     62.50% |     7082951     12.50%     75.00% |     7082978     12.50%     87.50% |     7082500     12.50%    100.00% (Unspecified)
system.caches.L2Cache_Controller.L2_Replacement_clean::total     56662489                       (Unspecified)
system.caches.L2Cache_Controller.Mem_Data |     7153325     12.50%     12.50% |     7153203     12.50%     25.00% |     7151579     12.50%     37.50% |     7150900     12.50%     50.00% |     7152106     12.50%     62.50% |     7152353     12.50%     75.00% |     7152186     12.50%     87.50% |     7152038     12.50%    100.00% (Unspecified)
system.caches.L2Cache_Controller.Mem_Data::total     57217690                       (Unspecified)
system.caches.L2Cache_Controller.Mem_Ack |     7136941     12.50%     12.50% |     7136819     12.50%     25.00% |     7135196     12.50%     37.50% |     7134516     12.50%     50.00% |     7135722     12.50%     62.50% |     7135969     12.50%     75.00% |     7135802     12.50%     87.50% |     7135654     12.50%    100.00% (Unspecified)
system.caches.L2Cache_Controller.Mem_Ack::total     57086619                       (Unspecified)
system.caches.L2Cache_Controller.WB_Data |        9849     19.13%     19.13% |        4947      9.61%     28.73% |        1809      3.51%     32.24% |        1895      3.68%     35.92% |        2092      4.06%     39.99% |        2016      3.91%     43.90% |       26846     52.13%     96.03% |        2044      3.97%    100.00% (Unspecified)
system.caches.L2Cache_Controller.WB_Data::total        51498                       (Unspecified)
system.caches.L2Cache_Controller.WB_Data_clean |       19380     12.49%     12.49% |       20406     13.15%     25.65% |       19371     12.49%     38.13% |       19277     12.43%     50.56% |       19153     12.35%     62.91% |       19142     12.34%     75.24% |       19149     12.34%     87.59% |       19254     12.41%    100.00% (Unspecified)
system.caches.L2Cache_Controller.WB_Data_clean::total       155132                       (Unspecified)
system.caches.L2Cache_Controller.Ack     |        5682     14.35%     14.35% |        5256     13.27%     27.62% |        4126     10.42%     38.04% |        3885      9.81%     47.85% |        5501     13.89%     61.75% |        5361     13.54%     75.29% |        5401     13.64%     88.93% |        4385     11.07%    100.00% (Unspecified)
system.caches.L2Cache_Controller.Ack::total        39597                       (Unspecified)
system.caches.L2Cache_Controller.Ack_all |        7730     14.04%     14.04% |        7680     13.95%     27.99% |        6039     10.97%     38.96% |        5760     10.46%     49.42% |        7004     12.72%     62.14% |        7005     12.72%     74.87% |        7090     12.88%     87.74% |        6747     12.26%    100.00% (Unspecified)
system.caches.L2Cache_Controller.Ack_all::total        55055                       (Unspecified)
system.caches.L2Cache_Controller.Unblock |       29229     14.15%     14.15% |       25352     12.27%     26.42% |       21180     10.25%     36.67% |       21172     10.25%     46.91% |       21244     10.28%     57.19% |       21158     10.24%     67.43% |       45995     22.26%     89.69% |       21297     10.31%    100.00% (Unspecified)
system.caches.L2Cache_Controller.Unblock::total       206627                       (Unspecified)
system.caches.L2Cache_Controller.Exclusive_Unblock |     7387436     12.54%     12.54% |     7385340     12.53%     25.07% |     7322091     12.43%     37.49% |     7339275     12.45%     49.95% |     7346342     12.47%     62.42% |     7387501     12.54%     74.95% |     7394735     12.55%     87.50% |     7365293     12.50%    100.00% (Unspecified)
system.caches.L2Cache_Controller.Exclusive_Unblock::total     58928013                       (Unspecified)
system.caches.L2Cache_Controller.NP.L1_GET_INSTR |        7546     13.97%     13.97% |        7533     13.94%     27.91% |        5934     10.98%     38.90% |        5619     10.40%     49.30% |        6888     12.75%     62.05% |        6895     12.76%     74.81% |        6981     12.92%     87.74% |        6624     12.26%    100.00% (Unspecified)
system.caches.L2Cache_Controller.NP.L1_GET_INSTR::total        54020                       (Unspecified)
system.caches.L2Cache_Controller.NP.L1_GETS |     7126481     12.50%     12.50% |     7126537     12.50%     25.00% |     7126380     12.50%     37.50% |     7126236     12.50%     50.00% |     7126107     12.50%     62.50% |     7126283     12.50%     75.00% |     7126110     12.50%     87.50% |     7126246     12.50%    100.00% (Unspecified)
system.caches.L2Cache_Controller.NP.L1_GETS::total     57010380                       (Unspecified)
system.caches.L2Cache_Controller.NP.L1_GETX |       19298     12.59%     12.59% |       19133     12.48%     25.07% |       19266     12.57%     37.64% |       19045     12.42%     50.06% |       19111     12.47%     62.53% |       19175     12.51%     75.04% |       19095     12.46%     87.50% |       19168     12.50%    100.00% (Unspecified)
system.caches.L2Cache_Controller.NP.L1_GETX::total       153291                       (Unspecified)
system.caches.L2Cache_Controller.SS.L1_GET_INSTR |        5953      2.56%      2.56% |       40320     17.34%     19.90% |       34741     14.94%     34.84% |        4443      1.91%     36.75% |       20632      8.87%     45.63% |       35600     15.31%     60.94% |       45714     19.66%     80.60% |       45110     19.40%    100.00% (Unspecified)
system.caches.L2Cache_Controller.SS.L1_GET_INSTR::total       232513                       (Unspecified)
system.caches.L2Cache_Controller.SS.L1_GETS |    24584972     12.56%     12.56% |    24527086     12.53%     25.08% |    24483588     12.50%     37.58% |    24421682     12.47%     50.06% |    24512537     12.52%     62.57% |    24454428     12.49%     75.06% |    24382456     12.45%     87.51% |    24450681     12.49%    100.00% (Unspecified)
system.caches.L2Cache_Controller.SS.L1_GETS::total    195817430                       (Unspecified)
system.caches.L2Cache_Controller.SS.L1_GETX |        7888     60.90%     60.90% |           0      0.00%     60.90% |           2      0.02%     60.91% |           0      0.00%     60.91% |          78      0.60%     61.51% |           8      0.06%     61.58% |        4974     38.40%     99.98% |           3      0.02%    100.00% (Unspecified)
system.caches.L2Cache_Controller.SS.L1_GETX::total        12953                       (Unspecified)
system.caches.L2Cache_Controller.SS.L1_UPGRADE |       18771     10.82%     10.82% |       22824     13.15%     23.97% |       18689     10.77%     34.73% |       18653     10.75%     45.48% |       18666     10.75%     56.24% |       18656     10.75%     66.98% |       38529     22.20%     89.18% |       18772     10.82%    100.00% (Unspecified)
system.caches.L2Cache_Controller.SS.L1_UPGRADE::total       173560                       (Unspecified)
system.caches.L2Cache_Controller.SS.L1_PUTX |           0      0.00%      0.00% |           0      0.00%      0.00% |           0      0.00%      0.00% |           0      0.00%      0.00% |           0      0.00%      0.00% |           0      0.00%      0.00% |           0      0.00%      0.00% |           1    100.00%    100.00% (Unspecified)
system.caches.L2Cache_Controller.SS.L1_PUTX::total            1                       (Unspecified)
system.caches.L2Cache_Controller.SS.L2_Replacement |          54     20.85%     20.85% |          34     13.13%     33.98% |          27     10.42%     44.40% |          30     11.58%     55.98% |          39     15.06%     71.04% |          19      7.34%     78.38% |          17      6.56%     84.94% |          39     15.06%    100.00% (Unspecified)
system.caches.L2Cache_Controller.SS.L2_Replacement::total          259                       (Unspecified)
system.caches.L2Cache_Controller.SS.L2_Replacement_clean |        7676     14.01%     14.01% |        7646     13.95%     27.96% |        6011     10.97%     38.93% |        5730     10.46%     49.39% |        6965     12.71%     62.10% |        6986     12.75%     74.85% |        7073     12.91%     87.76% |        6708     12.24%    100.00% (Unspecified)
system.caches.L2Cache_Controller.SS.L2_Replacement_clean::total        54795                       (Unspecified)
system.caches.L2Cache_Controller.M.L1_GETS |      167039     13.32%     13.32% |      176100     14.04%     27.36% |      141952     11.32%     38.67% |      144523     11.52%     50.19% |      151612     12.09%     62.28% |      152708     12.17%     74.45% |      165165     13.17%     87.62% |      155287     12.38%    100.00% (Unspecified)
system.caches.L2Cache_Controller.M.L1_GETS::total      1254386                       (Unspecified)
system.caches.L2Cache_Controller.M.L1_GETX |       46701     14.49%     14.49% |       40750     12.65%     27.14% |       15810      4.91%     32.05% |       30819      9.57%     41.62% |       30771      9.55%     51.17% |       70672     21.93%     73.10% |       40851     12.68%     85.78% |       45817     14.22%    100.00% (Unspecified)
system.caches.L2Cache_Controller.M.L1_GETX::total       322191                       (Unspecified)
system.caches.L2Cache_Controller.M.L2_Replacement |       53082     12.52%     12.52% |       52954     12.49%     25.02% |       53183     12.55%     37.56% |       52915     12.48%     50.05% |       52814     12.46%     62.51% |       52999     12.50%     75.01% |       52807     12.46%     87.47% |       53114     12.53%    100.00% (Unspecified)
system.caches.L2Cache_Controller.M.L2_Replacement::total       423868                       (Unspecified)
system.caches.L2Cache_Controller.M.L2_Replacement_clean |     7076129     12.50%     12.50% |     7076184     12.50%     25.00% |     7075974     12.50%     37.50% |     7075841     12.50%     50.00% |     7075903     12.50%     62.50% |     7075965     12.50%     75.00% |     7075905     12.50%     87.50% |     7075792     12.50%    100.00% (Unspecified)
system.caches.L2Cache_Controller.M.L2_Replacement_clean::total     56607693                       (Unspecified)
system.caches.L2Cache_Controller.MT.L1_GETS |       29229     14.15%     14.15% |       25352     12.27%     26.42% |       21180     10.25%     36.67% |       21172     10.25%     46.91% |       21244     10.28%     57.19% |       21158     10.24%     67.43% |       45995     22.26%     89.69% |       21297     10.31%    100.00% (Unspecified)
system.caches.L2Cache_Controller.MT.L1_GETS::total       206627                       (Unspecified)
system.caches.L2Cache_Controller.MT.L1_GETX |        1275     96.59%     96.59% |          14      1.06%     97.65% |           3      0.23%     97.88% |           1      0.08%     97.95% |           2      0.15%     98.11% |           2      0.15%     98.26% |          18      1.36%     99.62% |           5      0.38%    100.00% (Unspecified)
system.caches.L2Cache_Controller.MT.L1_GETX::total         1320                       (Unspecified)
system.caches.L2Cache_Controller.MT.L1_PUTX |     7356535     12.53%     12.53% |     7359549     12.53%     25.06% |     7300479     12.43%     37.50% |     7317711     12.46%     49.96% |     7324669     12.47%     62.43% |     7365915     12.54%     74.98% |     7348307     12.51%     87.49% |     7343581     12.51%    100.00% (Unspecified)
system.caches.L2Cache_Controller.MT.L1_PUTX::total     58716746                       (Unspecified)
system.caches.L2Cache_Controller.MT.L2_Replacement |           0      0.00%      0.00% |           1     33.33%     33.33% |           0      0.00%     33.33% |           0      0.00%     33.33% |           1     33.33%     66.67% |           0      0.00%     66.67% |           0      0.00%     66.67% |           1     33.33%    100.00% (Unspecified)
system.caches.L2Cache_Controller.MT.L2_Replacement::total            3                       (Unspecified)
system.caches.L2Cache_Controller.MT.L2_Replacement_clean |           0      0.00%      0.00% |           0      0.00%      0.00% |           1    100.00%    100.00% |           0      0.00%    100.00% |           0      0.00%    100.00% |           0      0.00%    100.00% |           0      0.00%    100.00% |           0      0.00%    100.00% (Unspecified)
system.caches.L2Cache_Controller.MT.L2_Replacement_clean::total            1                       (Unspecified)
system.caches.L2Cache_Controller.M_I.L1_GET_INSTR |           0      0.00%      0.00% |           0      0.00%      0.00% |           0      0.00%      0.00% |           0      0.00%      0.00% |           0      0.00%      0.00% |           0      0.00%      0.00% |           0      0.00%      0.00% |          50    100.00%    100.00% (Unspecified)
system.caches.L2Cache_Controller.M_I.L1_GET_INSTR::total           50                       (Unspecified)
system.caches.L2Cache_Controller.M_I.Mem_Ack |     7136941     12.50%     12.50% |     7136819     12.50%     25.00% |     7135196     12.50%     37.50% |     7134516     12.50%     50.00% |     7135722     12.50%     62.50% |     7135969     12.50%     75.00% |     7135802     12.50%     87.50% |     7135654     12.50%    100.00% (Unspecified)
system.caches.L2Cache_Controller.M_I.Mem_Ack::total     57086619                       (Unspecified)
system.caches.L2Cache_Controller.MT_I.WB_Data |           0      0.00%      0.00% |           1     33.33%     33.33% |           0      0.00%     33.33% |           0      0.00%     33.33% |           1     33.33%     66.67% |           0      0.00%     66.67% |           0      0.00%     66.67% |           1     33.33%    100.00% (Unspecified)
system.caches.L2Cache_Controller.MT_I.WB_Data::total            3                       (Unspecified)
system.caches.L2Cache_Controller.MCT_I.Ack_all |           0      0.00%      0.00% |           0      0.00%      0.00% |           1    100.00%    100.00% |           0      0.00%    100.00% |           0      0.00%    100.00% |           0      0.00%    100.00% |           0      0.00%    100.00% |           0      0.00%    100.00% (Unspecified)
system.caches.L2Cache_Controller.MCT_I.Ack_all::total            1                       (Unspecified)
system.caches.L2Cache_Controller.I_I.Ack |        5628     14.31%     14.31% |        5222     13.27%     27.58% |        4099     10.42%     38.00% |        3855      9.80%     47.80% |        5462     13.88%     61.69% |        5342     13.58%     75.27% |        5384     13.69%     88.95% |        4346     11.05%    100.00% (Unspecified)
system.caches.L2Cache_Controller.I_I.Ack::total        39338                       (Unspecified)
system.caches.L2Cache_Controller.I_I.Ack_all |        7676     14.01%     14.01% |        7646     13.95%     27.96% |        6011     10.97%     38.93% |        5730     10.46%     49.39% |        6965     12.71%     62.10% |        6986     12.75%     74.85% |        7073     12.91%     87.76% |        6708     12.24%    100.00% (Unspecified)
system.caches.L2Cache_Controller.I_I.Ack_all::total        54795                       (Unspecified)
system.caches.L2Cache_Controller.S_I.Ack |          54     20.85%     20.85% |          34     13.13%     33.98% |          27     10.42%     44.40% |          30     11.58%     55.98% |          39     15.06%     71.04% |          19      7.34%     78.38% |          17      6.56%     84.94% |          39     15.06%    100.00% (Unspecified)
system.caches.L2Cache_Controller.S_I.Ack::total          259                       (Unspecified)
system.caches.L2Cache_Controller.S_I.Ack_all |          54     20.85%     20.85% |          34     13.13%     33.98% |          27     10.42%     44.40% |          30     11.58%     55.98% |          39     15.06%     71.04% |          19      7.34%     78.38% |          17      6.56%     84.94% |          39     15.06%    100.00% (Unspecified)
system.caches.L2Cache_Controller.S_I.Ack_all::total          259                       (Unspecified)
system.caches.L2Cache_Controller.ISS.L1_GETS |          17     25.37%     25.37% |          18     26.87%     52.24% |          10     14.93%     67.16% |           2      2.99%     70.15% |           5      7.46%     77.61% |           3      4.48%     82.09% |           7     10.45%     92.54% |           5      7.46%    100.00% (Unspecified)
system.caches.L2Cache_Controller.ISS.L1_GETS::total           67                       (Unspecified)
system.caches.L2Cache_Controller.ISS.Mem_Data |     7126464     12.50%     12.50% |     7126519     12.50%     25.00% |     7126369     12.50%     37.50% |     7126234     12.50%     50.00% |     7126102     12.50%     62.50% |     7126280     12.50%     75.00% |     7126103     12.50%     87.50% |     7126241     12.50%    100.00% (Unspecified)
system.caches.L2Cache_Controller.ISS.Mem_Data::total     57010312                       (Unspecified)
system.caches.L2Cache_Controller.IS.L1_GET_INSTR |        1709     13.66%     13.66% |        1817     14.53%     28.19% |        1271     10.16%     38.35% |        1236      9.88%     48.23% |        1816     14.52%     62.75% |        1555     12.43%     75.18% |        1870     14.95%     90.13% |        1234      9.87%    100.00% (Unspecified)
system.caches.L2Cache_Controller.IS.L1_GET_INSTR::total        12508                       (Unspecified)
system.caches.L2Cache_Controller.IS.Mem_Data |        7563     13.98%     13.98% |        7551     13.96%     27.94% |        5944     10.99%     38.93% |        5621     10.39%     49.33% |        6893     12.74%     62.07% |        6898     12.75%     74.82% |        6988     12.92%     87.74% |        6629     12.26%    100.00% (Unspecified)
system.caches.L2Cache_Controller.IS.Mem_Data::total        54087                       (Unspecified)
system.caches.L2Cache_Controller.IM.L1_GETX |           0      0.00%      0.00% |           2    100.00%    100.00% |           0      0.00%    100.00% |           0      0.00%    100.00% |           0      0.00%    100.00% |           0      0.00%    100.00% |           0      0.00%    100.00% |           0      0.00%    100.00% (Unspecified)
system.caches.L2Cache_Controller.IM.L1_GETX::total            2                       (Unspecified)
system.caches.L2Cache_Controller.IM.Mem_Data |       19298     12.59%     12.59% |       19133     12.48%     25.07% |       19266     12.57%     37.64% |       19045     12.42%     50.06% |       19111     12.47%     62.53% |       19175     12.51%     75.04% |       19095     12.46%     87.50% |       19168     12.50%    100.00% (Unspecified)
system.caches.L2Cache_Controller.IM.Mem_Data::total       153291                       (Unspecified)
system.caches.L2Cache_Controller.SS_MB.L1_GETS |           0      0.00%      0.00% |           0      0.00%      0.00% |           0      0.00%      0.00% |           0      0.00%      0.00% |           0      0.00%      0.00% |           0      0.00%      0.00% |       15184     99.93%     99.93% |          10      0.07%    100.00% (Unspecified)
system.caches.L2Cache_Controller.SS_MB.L1_GETS::total        15194                       (Unspecified)
system.caches.L2Cache_Controller.SS_MB.L1_UPGRADE |           2    100.00%    100.00% |           0      0.00%    100.00% |           0      0.00%    100.00% |           0      0.00%    100.00% |           0      0.00%    100.00% |           0      0.00%    100.00% |           0      0.00%    100.00% |           0      0.00%    100.00% (Unspecified)
system.caches.L2Cache_Controller.SS_MB.L1_UPGRADE::total            2                       (Unspecified)
system.caches.L2Cache_Controller.SS_MB.Exclusive_Unblock |       26659     14.29%     14.29% |       22824     12.24%     26.53% |       18691     10.02%     36.55% |       18653     10.00%     46.55% |       18744     10.05%     56.60% |       18664     10.01%     66.61% |       43503     23.32%     89.93% |       18775     10.07%    100.00% (Unspecified)
system.caches.L2Cache_Controller.SS_MB.Exclusive_Unblock::total       186513                       (Unspecified)
system.caches.L2Cache_Controller.MT_MB.L1_GETS |           0      0.00%      0.00% |          11     64.71%     64.71% |           3     17.65%     82.35% |           0      0.00%     82.35% |           0      0.00%     82.35% |           2     11.76%     94.12% |           0      0.00%     94.12% |           1      5.88%    100.00% (Unspecified)
system.caches.L2Cache_Controller.MT_MB.L1_GETS::total           17                       (Unspecified)
system.caches.L2Cache_Controller.MT_MB.Exclusive_Unblock |     7360777     12.53%     12.53% |     7362516     12.53%     25.06% |     7303400     12.43%     37.50% |     7320622     12.46%     49.96% |     7327598     12.47%     62.43% |     7368837     12.54%     74.98% |     7351232     12.51%     87.49% |     7346518     12.51%    100.00% (Unspecified)
system.caches.L2Cache_Controller.MT_MB.Exclusive_Unblock::total     58741500                       (Unspecified)
system.caches.L2Cache_Controller.MT_IIB.L1_PUTX |           0      0.00%      0.00% |           0      0.00%      0.00% |           0      0.00%      0.00% |           0      0.00%      0.00% |           0      0.00%      0.00% |           0      0.00%      0.00% |           0      0.00%      0.00% |           1    100.00%    100.00% (Unspecified)
system.caches.L2Cache_Controller.MT_IIB.L1_PUTX::total            1                       (Unspecified)
system.caches.L2Cache_Controller.MT_IIB.WB_Data |        9849     19.13%     19.13% |        4946      9.60%     28.73% |        1809      3.51%     32.24% |        1895      3.68%     35.92% |        2091      4.06%     39.98% |        2016      3.91%     43.90% |       26846     52.13%     96.03% |        2043      3.97%    100.00% (Unspecified)
system.caches.L2Cache_Controller.MT_IIB.WB_Data::total        51495                       (Unspecified)
system.caches.L2Cache_Controller.MT_IIB.WB_Data_clean |       19380     12.49%     12.49% |       20406     13.15%     25.65% |       19371     12.49%     38.13% |       19277     12.43%     50.56% |       19153     12.35%     62.91% |       19142     12.34%     75.24% |       19149     12.34%     87.59% |       19254     12.41%    100.00% (Unspecified)
system.caches.L2Cache_Controller.MT_IIB.WB_Data_clean::total       155132                       (Unspecified)
system.caches.L2Cache_Controller.MT_SB.L1_UPGRADE |           0      0.00%      0.00% |           1      0.01%      0.01% |           0      0.00%      0.01% |           0      0.00%      0.01% |           0      0.00%      0.01% |           0      0.00%      0.01% |       12922     99.99%    100.00% |           0      0.00%    100.00% (Unspecified)
system.caches.L2Cache_Controller.MT_SB.L1_UPGRADE::total        12923                       (Unspecified)
system.caches.L2Cache_Controller.MT_SB.Unblock |       29229     14.15%     14.15% |       25352     12.27%     26.42% |       21180     10.25%     36.67% |       21172     10.25%     46.91% |       21244     10.28%     57.19% |       21158     10.24%     67.43% |       45995     22.26%     89.69% |       21297     10.31%    100.00% (Unspecified)
system.caches.L2Cache_Controller.MT_SB.Unblock::total       206627                       (Unspecified)
system.caches.RequestType.LD.latency_hist_seqr::bucket_size          512                       (Unspecified)
system.caches.RequestType.LD.latency_hist_seqr::max_bucket         5119                       (Unspecified)
system.caches.RequestType.LD.latency_hist_seqr::samples    927876592                       (Unspecified)
system.caches.RequestType.LD.latency_hist_seqr::mean    35.198359                       (Unspecified)
system.caches.RequestType.LD.latency_hist_seqr::gmean     2.526576                       (Unspecified)
system.caches.RequestType.LD.latency_hist_seqr::stdev   134.122921                       (Unspecified)
system.caches.RequestType.LD.latency_hist_seqr |   916694825     98.79%     98.79% |     9894797      1.07%     99.86% |      104817      0.01%     99.87% |     1127445      0.12%     99.99% |       54522      0.01%    100.00% |         186      0.00%    100.00% |           0      0.00%    100.00% |           0      0.00%    100.00% |           0      0.00%    100.00% |           0      0.00%    100.00% (Unspecified)
system.caches.RequestType.LD.latency_hist_seqr::total    927876592                       (Unspecified)
system.caches.RequestType.LD.hit_latency_hist_seqr::bucket_size            1                       (Unspecified)
system.caches.RequestType.LD.hit_latency_hist_seqr::max_bucket            9                       (Unspecified)
system.caches.RequestType.LD.hit_latency_hist_seqr::samples    673587703                       (Unspecified)
system.caches.RequestType.LD.hit_latency_hist_seqr::mean            1                       (Unspecified)
system.caches.RequestType.LD.hit_latency_hist_seqr::gmean            1                       (Unspecified)
system.caches.RequestType.LD.hit_latency_hist_seqr |           0      0.00%      0.00% |   673587703    100.00%    100.00% |           0      0.00%    100.00% |           0      0.00%    100.00% |           0      0.00%    100.00% |           0      0.00%    100.00% |           0      0.00%    100.00% |           0      0.00%    100.00% |           0      0.00%    100.00% |           0      0.00%    100.00% (Unspecified)
system.caches.RequestType.LD.hit_latency_hist_seqr::total    673587703                       (Unspecified)
system.caches.RequestType.LD.miss_latency_hist_seqr::bucket_size          512                       (Unspecified)
system.caches.RequestType.LD.miss_latency_hist_seqr::max_bucket         5119                       (Unspecified)
system.caches.RequestType.LD.miss_latency_hist_seqr::samples    254288889                       (Unspecified)
system.caches.RequestType.LD.miss_latency_hist_seqr::mean   125.786643                       (Unspecified)
[...]
system.timingCpu0.exec_context.thread_0.statExecutedInstType::SimdSha1Hash2            0      0.00%     77.13% # Class of executed instruction. (Count)
system.timingCpu0.exec_context.thread_0.statExecutedInstType::SimdSha256Hash            0      0.00%     77.13% # Class of executed instruction. (Count)
system.timingCpu0.exec_context.thread_0.statExecutedInstType::SimdSha256Hash2            0      0.00%     77.13% # Class of executed instruction. (Count)
system.timingCpu0.exec_context.thread_0.statExecutedInstType::SimdShaSigma2            0      0.00%     77.13% # Class of executed instruction. (Count)
system.timingCpu0.exec_context.thread_0.statExecutedInstType::SimdShaSigma3            0      0.00%     77.13% # Class of executed instruction. (Count)
system.timingCpu0.exec_context.thread_0.statExecutedInstType::SimdPredAlu            0      0.00%     77.13% # Class of executed instruction. (Count)
system.timingCpu0.exec_context.thread_0.statExecutedInstType::MemRead    158407459      7.71%     84.84% # Class of executed instruction. (Count)
system.timingCpu0.exec_context.thread_0.statExecutedInstType::MemWrite      2734049      0.13%     84.97% # Class of executed instruction. (Count)
system.timingCpu0.exec_context.thread_0.statExecutedInstType::FloatMemRead    306319234     14.91%     99.88% # Class of executed instruction. (Count)
system.timingCpu0.exec_context.thread_0.statExecutedInstType::FloatMemWrite      2426567      0.12%    100.00% # Class of executed instruction. (Count)
system.timingCpu0.exec_context.thread_0.statExecutedInstType::IprAccess            0      0.00%    100.00% # Class of executed instruction. (Count)
system.timingCpu0.exec_context.thread_0.statExecutedInstType::InstPrefetch            0      0.00%    100.00% # Class of executed instruction. (Count)
system.timingCpu0.exec_context.thread_0.statExecutedInstType::total   2054163104                       # Class of executed instruction. (Count)
system.timingCpu0.mmu.dtb.rdAccesses        464852752                       # TLB accesses on read requests (Count)
system.timingCpu0.mmu.dtb.wrAccesses          5176905                       # TLB accesses on write requests (Count)
system.timingCpu0.mmu.dtb.rdMisses             126058                       # TLB misses on read requests (Count)
system.timingCpu0.mmu.dtb.wrMisses              16298                       # TLB misses on write requests (Count)
system.timingCpu0.mmu.dtb.walker.power_state.pwrStateResidencyTicks::UNDEFINED 28844873365250                       # Cumulative time (in ticks) in various power states (Tick)
system.timingCpu0.mmu.itb.rdAccesses                0                       # TLB accesses on read requests (Count)
system.timingCpu0.mmu.itb.wrAccesses       1573129994                       # TLB accesses on write requests (Count)
system.timingCpu0.mmu.itb.rdMisses                  0                       # TLB misses on read requests (Count)
system.timingCpu0.mmu.itb.wrMisses               5137                       # TLB misses on write requests (Count)
system.timingCpu0.mmu.itb.walker.power_state.pwrStateResidencyTicks::UNDEFINED 28844873365250                       # Cumulative time (in ticks) in various power states (Tick)
system.timingCpu0.power_state.numTransitions            4                       # Number of power state transitions (Count)
system.timingCpu0.power_state.ticksClkGated::samples            2                       # Distribution of time spent in the clock gated state (Tick)
system.timingCpu0.power_state.ticksClkGated::mean    238200750                       # Distribution of time spent in the clock gated state (Tick)
system.timingCpu0.power_state.ticksClkGated::stdev 209368661.055087                       # Distribution of time spent in the clock gated state (Tick)
system.timingCpu0.power_state.ticksClkGated::1000-5e+10            2    100.00%    100.00% # Distribution of time spent in the clock gated state (Tick)
system.timingCpu0.power_state.ticksClkGated::min_value     90154750                       # Distribution of time spent in the clock gated state (Tick)
system.timingCpu0.power_state.ticksClkGated::max_value    386246750                       # Distribution of time spent in the clock gated state (Tick)
system.timingCpu0.power_state.ticksClkGated::total            2                       # Distribution of time spent in the clock gated state (Tick)
system.timingCpu0.power_state.pwrStateResidencyTicks::ON 4415487118500                       # Cumulative time (in ticks) in various power states (Tick)
system.timingCpu0.power_state.pwrStateResidencyTicks::CLK_GATED    476401500                       # Cumulative time (in ticks) in various power states (Tick)
system.timingCpu0.power_state.pwrStateResidencyTicks::OFF 24428909845250                       # Cumulative time (in ticks) in various power states (Tick)
system.timingCpu0.thread_0.numInsts                 0                       # Number of Instructions committed (Count)
system.timingCpu0.thread_0.numOps                   0                       # Number of Ops committed (Count)
system.timingCpu0.thread_0.numMemRefs               0                       # Number of Memory References (Count)
system.timingCpu1.numCycles               19999999996                       # Number of cpu cycles simulated (Cycle)
system.timingCpu1.numWorkItemsStarted               0                       # Number of work items this cpu started (Count)
system.timingCpu1.numWorkItemsCompleted             0                       # Number of work items this cpu completed (Count)
system.timingCpu1.exec_context.thread_0.numInsts   1094380518                       # Number of instructions committed (Count)
system.timingCpu1.exec_context.thread_0.numOps   2030390623                       # Number of ops (including micro ops) committed (Count)
system.timingCpu1.exec_context.thread_0.numIntAluAccesses   1566455704                       # Number of integer alu accesses (Count)
system.timingCpu1.exec_context.thread_0.numFpAluAccesses    771284801                       # Number of float alu accesses (Count)
system.timingCpu1.exec_context.thread_0.numVecAluAccesses            0                       # Number of vector alu accesses (Count)
system.timingCpu1.exec_context.thread_0.numCallsReturns       841257                       # Number of times a function call or return occured (Count)
system.timingCpu1.exec_context.thread_0.numCondCtrlInsts    155686632                       # Number of instructions that are conditional controls (Count)
system.timingCpu1.exec_context.thread_0.numIntInsts   1566455704                       # Number of integer instructions (Count)
system.timingCpu1.exec_context.thread_0.numFpInsts    771284801                       # Number of float instructions (Count)
system.timingCpu1.exec_context.thread_0.numVecInsts            0                       # Number of vector instructions (Count)
system.timingCpu1.exec_context.thread_0.numIntRegReads   2038585670                       # Number of times the integer registers were read (Count)
system.timingCpu1.exec_context.thread_0.numIntRegWrites    943282966                       # Number of times the integer registers were written (Count)
system.timingCpu1.exec_context.thread_0.numFpRegReads    928272024                       # Number of times the floating registers were read (Count)
system.timingCpu1.exec_context.thread_0.numFpRegWrites    768844982                       # Number of times the floating registers were written (Count)
system.timingCpu1.exec_context.thread_0.numVecRegReads            0                       # Number of times the vector registers were read (Count)
system.timingCpu1.exec_context.thread_0.numVecRegWrites            0                       # Number of times the vector registers were written (Count)
system.timingCpu1.exec_context.thread_0.numVecPredRegReads            0                       # Number of times the predicate registers were read (Count)
system.timingCpu1.exec_context.thread_0.numVecPredRegWrites            0                       # Number of times the predicate registers were written (Count)
system.timingCpu1.exec_context.thread_0.numCCRegReads    783444282                       # Number of times the CC registers were read (Count)
system.timingCpu1.exec_context.thread_0.numCCRegWrites    626763182                       # Number of times the CC registers were written (Count)
system.timingCpu1.exec_context.thread_0.numMiscRegReads    781268459                       # Number of times the Misc registers were read (Count)
system.timingCpu1.exec_context.thread_0.numMiscRegWrites       174958                       # Number of times the Misc registers were written (Count)
system.timingCpu1.exec_context.thread_0.numMemRefs    467036299                       # Number of memory refs (Count)
system.timingCpu1.exec_context.thread_0.numLoadInsts    462577397                       # Number of load instructions (Count)
system.timingCpu1.exec_context.thread_0.numStoreInsts      4458902                       # Number of store instructions (Count)
system.timingCpu1.exec_context.thread_0.numIdleCycles            0                       # Number of idle cycles (Cycle)
system.timingCpu1.exec_context.thread_0.numBusyCycles  19999999996                       # Number of busy cycles (Cycle)
system.timingCpu1.exec_context.thread_0.notIdleFraction            1                       # Percentage of non-idle cycles (Ratio)
system.timingCpu1.exec_context.thread_0.idleFraction            0                       # Percentage of idle cycles (Ratio)
system.timingCpu1.exec_context.thread_0.numBranches    157034627                       # Number of branches fetched (Count)
system.timingCpu1.exec_context.thread_0.statExecutedInstType::No_OpClass       656746      0.03%      0.03% # Class of executed instruction. (Count)
system.timingCpu1.exec_context.thread_0.statExecutedInstType::IntAlu   1100052468     54.18%     54.21% # Class of executed instruction. (Count)
system.timingCpu1.exec_context.thread_0.statExecutedInstType::IntMult       116798      0.01%     54.22% # Class of executed instruction. (Count)
system.timingCpu1.exec_context.thread_0.statExecutedInstType::IntDiv       219125      0.01%     54.23% # Class of executed instruction. (Count)
system.timingCpu1.exec_context.thread_0.statExecutedInstType::FloatAdd    153264654      7.55%     61.78% # Class of executed instruction. (Count)
system.timingCpu1.exec_context.thread_0.statExecutedInstType::FloatCmp            0      0.00%     61.78% # Class of executed instruction. (Count)
system.timingCpu1.exec_context.thread_0.statExecutedInstType::FloatCvt          192      0.00%     61.78% # Class of executed instruction. (Count)
system.timingCpu1.exec_context.thread_0.statExecutedInstType::FloatMult            0      0.00%     61.78% # Class of executed instruction. (Count)
system.timingCpu1.exec_context.thread_0.statExecutedInstType::FloatMultAcc            0      0.00%     61.78% # Class of executed instruction. (Count)
system.timingCpu1.exec_context.thread_0.statExecutedInstType::FloatDiv            0      0.00%     61.78% # Class of executed instruction. (Count)
system.timingCpu1.exec_context.thread_0.statExecutedInstType::FloatMisc            0      0.00%     61.78% # Class of executed instruction. (Count)
system.timingCpu1.exec_context.thread_0.statExecutedInstType::FloatSqrt            0      0.00%     61.78% # Class of executed instruction. (Count)
system.timingCpu1.exec_context.thread_0.statExecutedInstType::SimdAdd            0      0.00%     61.78% # Class of executed instruction. (Count)
system.timingCpu1.exec_context.thread_0.statExecutedInstType::SimdAddAcc            0      0.00%     61.78% # Class of executed instruction. (Count)
system.timingCpu1.exec_context.thread_0.statExecutedInstType::SimdAlu      1273730      0.06%     61.84% # Class of executed instruction. (Count)
system.timingCpu1.exec_context.thread_0.statExecutedInstType::SimdCmp         1084      0.00%     61.84% # Class of executed instruction. (Count)
system.timingCpu1.exec_context.thread_0.statExecutedInstType::SimdCvt        15454      0.00%     61.84% # Class of executed instruction. (Count)
system.timingCpu1.exec_context.thread_0.statExecutedInstType::SimdMisc        31321      0.00%     61.84% # Class of executed instruction. (Count)
system.timingCpu1.exec_context.thread_0.statExecutedInstType::SimdMult            0      0.00%     61.84% # Class of executed instruction. (Count)
system.timingCpu1.exec_context.thread_0.statExecutedInstType::SimdMultAcc            0      0.00%     61.84% # Class of executed instruction. (Count)
system.timingCpu1.exec_context.thread_0.statExecutedInstType::SimdShift            0      0.00%     61.84% # Class of executed instruction. (Count)
system.timingCpu1.exec_context.thread_0.statExecutedInstType::SimdShiftAcc            0      0.00%     61.84% # Class of executed instruction. (Count)
system.timingCpu1.exec_context.thread_0.statExecutedInstType::SimdDiv            0      0.00%     61.84% # Class of executed instruction. (Count)
system.timingCpu1.exec_context.thread_0.statExecutedInstType::SimdSqrt            0      0.00%     61.84% # Class of executed instruction. (Count)
system.timingCpu1.exec_context.thread_0.statExecutedInstType::SimdFloatAdd    153861402      7.58%     69.42% # Class of executed instruction. (Count)
system.timingCpu1.exec_context.thread_0.statExecutedInstType::SimdFloatAlu            0      0.00%     69.42% # Class of executed instruction. (Count)
system.timingCpu1.exec_context.thread_0.statExecutedInstType::SimdFloatCmp            0      0.00%     69.42% # Class of executed instruction. (Count)
system.timingCpu1.exec_context.thread_0.statExecutedInstType::SimdFloatCvt            0      0.00%     69.42% # Class of executed instruction. (Count)
system.timingCpu1.exec_context.thread_0.statExecutedInstType::SimdFloatDiv           16      0.00%     69.42% # Class of executed instruction. (Count)
system.timingCpu1.exec_context.thread_0.statExecutedInstType::SimdFloatMisc            0      0.00%     69.42% # Class of executed instruction. (Count)
system.timingCpu1.exec_context.thread_0.statExecutedInstType::SimdFloatMult    153861386      7.58%     77.00% # Class of executed instruction. (Count)
system.timingCpu1.exec_context.thread_0.statExecutedInstType::SimdFloatMultAcc            0      0.00%     77.00% # Class of executed instruction. (Count)
system.timingCpu1.exec_context.thread_0.statExecutedInstType::SimdFloatSqrt            0      0.00%     77.00% # Class of executed instruction. (Count)
system.timingCpu1.exec_context.thread_0.statExecutedInstType::SimdReduceAdd            0      0.00%     77.00% # Class of executed instruction. (Count)
system.timingCpu1.exec_context.thread_0.statExecutedInstType::SimdReduceAlu            0      0.00%     77.00% # Class of executed instruction. (Count)
system.timingCpu1.exec_context.thread_0.statExecutedInstType::SimdReduceCmp            0      0.00%     77.00% # Class of executed instruction. (Count)
system.timingCpu1.exec_context.thread_0.statExecutedInstType::SimdFloatReduceAdd            0      0.00%     77.00% # Class of executed instruction. (Count)
system.timingCpu1.exec_context.thread_0.statExecutedInstType::SimdFloatReduceCmp            0      0.00%     77.00% # Class of executed instruction. (Count)
system.timingCpu1.exec_context.thread_0.statExecutedInstType::SimdAes            0      0.00%     77.00% # Class of executed instruction. (Count)
system.timingCpu1.exec_context.thread_0.statExecutedInstType::SimdAesMix            0      0.00%     77.00% # Class of executed instruction. (Count)
system.timingCpu1.exec_context.thread_0.statExecutedInstType::SimdSha1Hash            0      0.00%     77.00% # Class of executed instruction. (Count)
system.timingCpu1.exec_context.thread_0.statExecutedInstType::SimdSha1Hash2            0      0.00%     77.00% # Class of executed instruction. (Count)
system.timingCpu1.exec_context.thread_0.statExecutedInstType::SimdSha256Hash            0      0.00%     77.00% # Class of executed instruction. (Count)
system.timingCpu1.exec_context.thread_0.statExecutedInstType::SimdSha256Hash2            0      0.00%     77.00% # Class of executed instruction. (Count)
system.timingCpu1.exec_context.thread_0.statExecutedInstType::SimdShaSigma2            0      0.00%     77.00% # Class of executed instruction. (Count)
system.timingCpu1.exec_context.thread_0.statExecutedInstType::SimdShaSigma3            0      0.00%     77.00% # Class of executed instruction. (Count)
system.timingCpu1.exec_context.thread_0.statExecutedInstType::SimdPredAlu            0      0.00%     77.00% # Class of executed instruction. (Count)
system.timingCpu1.exec_context.thread_0.statExecutedInstType::MemRead    156041911      7.69%     84.68% # Class of executed instruction. (Count)
system.timingCpu1.exec_context.thread_0.statExecutedInstType::MemWrite      2028343      0.10%     84.78% # Class of executed instruction. (Count)
system.timingCpu1.exec_context.thread_0.statExecutedInstType::FloatMemRead    306535486     15.10%     99.88% # Class of executed instruction. (Count)
system.timingCpu1.exec_context.thread_0.statExecutedInstType::FloatMemWrite      2430559      0.12%    100.00% # Class of executed instruction. (Count)
system.timingCpu1.exec_context.thread_0.statExecutedInstType::IprAccess            0      0.00%    100.00% # Class of executed instruction. (Count)
system.timingCpu1.exec_context.thread_0.statExecutedInstType::InstPrefetch            0      0.00%    100.00% # Class of executed instruction. (Count)
system.timingCpu1.exec_context.thread_0.statExecutedInstType::total   2030390675                       # Class of executed instruction. (Count)
system.timingCpu1.mmu.dtb.rdAccesses        462703816                       # TLB accesses on read requests (Count)
system.timingCpu1.mmu.dtb.wrAccesses          4470726                       # TLB accesses on write requests (Count)
system.timingCpu1.mmu.dtb.rdMisses             126770                       # TLB misses on read requests (Count)
system.timingCpu1.mmu.dtb.wrMisses              11970                       # TLB misses on write requests (Count)
system.timingCpu1.mmu.dtb.walker.power_state.pwrStateResidencyTicks::UNDEFINED 28844873365250                       # Cumulative time (in ticks) in various power states (Tick)
system.timingCpu1.mmu.itb.rdAccesses                0                       # TLB accesses on read requests (Count)
system.timingCpu1.mmu.itb.wrAccesses       1559667066                       # TLB accesses on write requests (Count)
system.timingCpu1.mmu.itb.rdMisses                  0                       # TLB misses on read requests (Count)
system.timingCpu1.mmu.itb.wrMisses               6449                       # TLB misses on write requests (Count)
system.timingCpu1.mmu.itb.walker.power_state.pwrStateResidencyTicks::UNDEFINED 28844873365250                       # Cumulative time (in ticks) in various power states (Tick)
system.timingCpu1.power_state.pwrStateResidencyTicks::OFF 28844873365250                       # Cumulative time (in ticks) in various power states (Tick)
system.timingCpu1.thread_0.numInsts                 0                       # Number of Instructions committed (Count)
system.timingCpu1.thread_0.numOps                   0                       # Number of Ops committed (Count)
system.timingCpu1.thread_0.numMemRefs               0                       # Number of Memory References (Count)
system.workload.inst.arm                            0                       # number of arm instructions executed (Count)
system.workload.inst.quiesce                        0                       # number of quiesce instructions executed (Count)

---------- End Simulation Statistics   ----------
