
---------- Begin Simulation Statistics ----------
simSeconds                                   0.010000                       # Number of seconds simulated (Second)
simTicks                                  10000002576                       # Number of ticks simulated (Tick)
finalTick                                 10000002576                       # Number of ticks from beginning of simulation (restored from checkpoints and never reset) (Tick)
simFreq                                  1000000000000                       # The number of ticks per simulated second ((Tick/Second))
hostSeconds                                     55.61                       # Real time elapsed on the host (Second)
hostTickRate                                179822900                       # The number of ticks simulated per host second (ticks/s) ((Tick/Second))
hostMemory                                    3275888                       # Number of bytes of host memory used (Byte)
system.clk_domain.clock                           250                       # Clock period in ticks (Tick)
system.clk_domain.voltage_domain.voltage            1                       # Voltage in Volts (Volt)
system.far_mem_ctrl.avgPriority_writebacks::samples   1828506.00                       # Average QoS priority value for accepted requests (Count)
system.far_mem_ctrl.priorityMinLatency   0.000000031652                       # per QoS priority minimum request to response latency (Second)
system.far_mem_ctrl.priorityMaxLatency   0.000001395278                       # per QoS priority maximum request to response latency (Second)
system.far_mem_ctrl.numReadWriteTurnArounds            0                       # Number of turnarounds from READ to WRITE (Count)
system.far_mem_ctrl.numWriteReadTurnArounds            0                       # Number of turnarounds from WRITE to READ (Count)
system.far_mem_ctrl.numStayReadState          1868590                       # Number of times bus staying in READ state (Count)
system.far_mem_ctrl.numStayWriteState               0                       # Number of times bus staying in WRITE state (Count)
system.far_mem_ctrl.readReqs                  1828506                       # Number of read requests accepted (Count)
system.far_mem_ctrl.writeReqs                       0                       # Number of write requests accepted (Count)
system.far_mem_ctrl.readBursts                1828506                       # Number of controller read bursts, including those serviced by the write queue (Count)
system.far_mem_ctrl.writeBursts                     0                       # Number of controller write bursts, including those merged in the write queue (Count)
system.far_mem_ctrl.servicedByWrQ                   0                       # Number of controller read bursts serviced by the write queue (Count)
system.far_mem_ctrl.mergedWrBursts                  0                       # Number of controller write bursts merged with an existing one (Count)
system.far_mem_ctrl.avgRdQLen                   13.61                       # Average read queue length when enqueuing ((Count/Tick))
system.far_mem_ctrl.avgWrQLen                    0.00                       # Average write queue length when enqueuing ((Count/Tick))
system.far_mem_ctrl.numRdRetry                    733                       # Number of times read queue was full causing retry (Count)
system.far_mem_ctrl.numWrRetry                      0                       # Number of times write queue was full causing retry (Count)
system.far_mem_ctrl.readPktSize::0                  0                       # Read request sizes (log2) (Count)
system.far_mem_ctrl.readPktSize::1                  0                       # Read request sizes (log2) (Count)
system.far_mem_ctrl.readPktSize::2                  0                       # Read request sizes (log2) (Count)
system.far_mem_ctrl.readPktSize::3                  0                       # Read request sizes (log2) (Count)
system.far_mem_ctrl.readPktSize::4                  0                       # Read request sizes (log2) (Count)
system.far_mem_ctrl.readPktSize::5                  0                       # Read request sizes (log2) (Count)
system.far_mem_ctrl.readPktSize::6            1828506                       # Read request sizes (log2) (Count)
system.far_mem_ctrl.writePktSize::0                 0                       # Write request sizes (log2) (Count)
system.far_mem_ctrl.writePktSize::1                 0                       # Write request sizes (log2) (Count)
system.far_mem_ctrl.writePktSize::2                 0                       # Write request sizes (log2) (Count)
system.far_mem_ctrl.writePktSize::3                 0                       # Write request sizes (log2) (Count)
system.far_mem_ctrl.writePktSize::4                 0                       # Write request sizes (log2) (Count)
system.far_mem_ctrl.writePktSize::5                 0                       # Write request sizes (log2) (Count)
system.far_mem_ctrl.writePktSize::6                 0                       # Write request sizes (log2) (Count)
system.far_mem_ctrl.rdQLenPdf::0                    5                       # What read queue length does an incoming req see (Count)
system.far_mem_ctrl.rdQLenPdf::1                   34                       # What read queue length does an incoming req see (Count)
system.far_mem_ctrl.rdQLenPdf::2                  132                       # What read queue length does an incoming req see (Count)
system.far_mem_ctrl.rdQLenPdf::3                  398                       # What read queue length does an incoming req see (Count)
system.far_mem_ctrl.rdQLenPdf::4                 1100                       # What read queue length does an incoming req see (Count)
system.far_mem_ctrl.rdQLenPdf::5                 3586                       # What read queue length does an incoming req see (Count)
system.far_mem_ctrl.rdQLenPdf::6                10635                       # What read queue length does an incoming req see (Count)
system.far_mem_ctrl.rdQLenPdf::7                27543                       # What read queue length does an incoming req see (Count)
system.far_mem_ctrl.rdQLenPdf::8                60429                       # What read queue length does an incoming req see (Count)
system.far_mem_ctrl.rdQLenPdf::9               111603                       # What read queue length does an incoming req see (Count)
system.far_mem_ctrl.rdQLenPdf::10              176207                       # What read queue length does an incoming req see (Count)
system.far_mem_ctrl.rdQLenPdf::11              238992                       # What read queue length does an incoming req see (Count)
system.far_mem_ctrl.rdQLenPdf::12              274728                       # What read queue length does an incoming req see (Count)
system.far_mem_ctrl.rdQLenPdf::13              272136                       # What read queue length does an incoming req see (Count)
system.far_mem_ctrl.rdQLenPdf::14              234473                       # What read queue length does an incoming req see (Count)
system.far_mem_ctrl.rdQLenPdf::15              173371                       # What read queue length does an incoming req see (Count)
system.far_mem_ctrl.rdQLenPdf::16              113942                       # What read queue length does an incoming req see (Count)
system.far_mem_ctrl.rdQLenPdf::17               66484                       # What read queue length does an incoming req see (Count)
system.far_mem_ctrl.rdQLenPdf::18               34317                       # What read queue length does an incoming req see (Count)
system.far_mem_ctrl.rdQLenPdf::19               16328                       # What read queue length does an incoming req see (Count)
system.far_mem_ctrl.rdQLenPdf::20                7048                       # What read queue length does an incoming req see (Count)
system.far_mem_ctrl.rdQLenPdf::21                2788                       # What read queue length does an incoming req see (Count)
system.far_mem_ctrl.rdQLenPdf::22                 960                       # What read queue length does an incoming req see (Count)
system.far_mem_ctrl.rdQLenPdf::23                 351                       # What read queue length does an incoming req see (Count)
system.far_mem_ctrl.rdQLenPdf::24                 157                       # What read queue length does an incoming req see (Count)
system.far_mem_ctrl.rdQLenPdf::25                  88                       # What read queue length does an incoming req see (Count)
system.far_mem_ctrl.rdQLenPdf::26                  40                       # What read queue length does an incoming req see (Count)
system.far_mem_ctrl.rdQLenPdf::27                   3                       # What read queue length does an incoming req see (Count)
system.far_mem_ctrl.rdQLenPdf::28                   8                       # What read queue length does an incoming req see (Count)
system.far_mem_ctrl.rdQLenPdf::29                  12                       # What read queue length does an incoming req see (Count)
system.far_mem_ctrl.rdQLenPdf::30                   5                       # What read queue length does an incoming req see (Count)
system.far_mem_ctrl.rdQLenPdf::31                  11                       # What read queue length does an incoming req see (Count)
system.far_mem_ctrl.rdQLenPdf::32                  14                       # What read queue length does an incoming req see (Count)
system.far_mem_ctrl.rdQLenPdf::33                   1                       # What read queue length does an incoming req see (Count)
system.far_mem_ctrl.rdQLenPdf::34                   3                       # What read queue length does an incoming req see (Count)
system.far_mem_ctrl.rdQLenPdf::35                   2                       # What read queue length does an incoming req see (Count)
system.far_mem_ctrl.rdQLenPdf::36                   2                       # What read queue length does an incoming req see (Count)
system.far_mem_ctrl.rdQLenPdf::37                   2                       # What read queue length does an incoming req see (Count)
system.far_mem_ctrl.rdQLenPdf::38                   1                       # What read queue length does an incoming req see (Count)
system.far_mem_ctrl.rdQLenPdf::39                   6                       # What read queue length does an incoming req see (Count)
system.far_mem_ctrl.rdQLenPdf::40                   7                       # What read queue length does an incoming req see (Count)
system.far_mem_ctrl.rdQLenPdf::41                   8                       # What read queue length does an incoming req see (Count)
system.far_mem_ctrl.rdQLenPdf::42                  12                       # What read queue length does an incoming req see (Count)
system.far_mem_ctrl.rdQLenPdf::43                   3                       # What read queue length does an incoming req see (Count)
system.far_mem_ctrl.rdQLenPdf::44                   1                       # What read queue length does an incoming req see (Count)
system.far_mem_ctrl.rdQLenPdf::45                   4                       # What read queue length does an incoming req see (Count)
system.far_mem_ctrl.rdQLenPdf::46                   1                       # What read queue length does an incoming req see (Count)
system.far_mem_ctrl.rdQLenPdf::47                   6                       # What read queue length does an incoming req see (Count)
system.far_mem_ctrl.rdQLenPdf::48                   8                       # What read queue length does an incoming req see (Count)
system.far_mem_ctrl.rdQLenPdf::49                   3                       # What read queue length does an incoming req see (Count)
system.far_mem_ctrl.rdQLenPdf::50                   5                       # What read queue length does an incoming req see (Count)
system.far_mem_ctrl.rdQLenPdf::51                   3                       # What read queue length does an incoming req see (Count)
system.far_mem_ctrl.rdQLenPdf::52                   4                       # What read queue length does an incoming req see (Count)
system.far_mem_ctrl.rdQLenPdf::53                   4                       # What read queue length does an incoming req see (Count)
system.far_mem_ctrl.rdQLenPdf::54                   3                       # What read queue length does an incoming req see (Count)
system.far_mem_ctrl.rdQLenPdf::55                   2                       # What read queue length does an incoming req see (Count)
system.far_mem_ctrl.rdQLenPdf::56                  10                       # What read queue length does an incoming req see (Count)
system.far_mem_ctrl.rdQLenPdf::57                   2                       # What read queue length does an incoming req see (Count)
system.far_mem_ctrl.rdQLenPdf::58                   1                       # What read queue length does an incoming req see (Count)
system.far_mem_ctrl.rdQLenPdf::59                   3                       # What read queue length does an incoming req see (Count)
system.far_mem_ctrl.rdQLenPdf::60                   2                       # What read queue length does an incoming req see (Count)
system.far_mem_ctrl.rdQLenPdf::61                   4                       # What read queue length does an incoming req see (Count)
system.far_mem_ctrl.rdQLenPdf::62                   3                       # What read queue length does an incoming req see (Count)
system.far_mem_ctrl.rdQLenPdf::63                 462                       # What read queue length does an incoming req see (Count)
system.far_mem_ctrl.wrQLenPdf::0                    0                       # What write queue length does an incoming req see (Count)
system.far_mem_ctrl.wrQLenPdf::1                    0                       # What write queue length does an incoming req see (Count)
system.far_mem_ctrl.wrQLenPdf::2                    0                       # What write queue length does an incoming req see (Count)
system.far_mem_ctrl.wrQLenPdf::3                    0                       # What write queue length does an incoming req see (Count)
system.far_mem_ctrl.wrQLenPdf::4                    0                       # What write queue length does an incoming req see (Count)
system.far_mem_ctrl.wrQLenPdf::5                    0                       # What write queue length does an incoming req see (Count)
system.far_mem_ctrl.wrQLenPdf::6                    0                       # What write queue length does an incoming req see (Count)
system.far_mem_ctrl.wrQLenPdf::7                    0                       # What write queue length does an incoming req see (Count)
system.far_mem_ctrl.wrQLenPdf::8                    0                       # What write queue length does an incoming req see (Count)
system.far_mem_ctrl.wrQLenPdf::9                    0                       # What write queue length does an incoming req see (Count)
system.far_mem_ctrl.wrQLenPdf::10                   0                       # What write queue length does an incoming req see (Count)
system.far_mem_ctrl.wrQLenPdf::11                   0                       # What write queue length does an incoming req see (Count)
system.far_mem_ctrl.wrQLenPdf::12                   0                       # What write queue length does an incoming req see (Count)
system.far_mem_ctrl.wrQLenPdf::13                   0                       # What write queue length does an incoming req see (Count)
system.far_mem_ctrl.wrQLenPdf::14                   0                       # What write queue length does an incoming req see (Count)
system.far_mem_ctrl.wrQLenPdf::15                   0                       # What write queue length does an incoming req see (Count)
system.far_mem_ctrl.wrQLenPdf::16                   0                       # What write queue length does an incoming req see (Count)
system.far_mem_ctrl.wrQLenPdf::17                   0                       # What write queue length does an incoming req see (Count)
system.far_mem_ctrl.wrQLenPdf::18                   0                       # What write queue length does an incoming req see (Count)
system.far_mem_ctrl.wrQLenPdf::19                   0                       # What write queue length does an incoming req see (Count)
system.far_mem_ctrl.wrQLenPdf::20                   0                       # What write queue length does an incoming req see (Count)
system.far_mem_ctrl.wrQLenPdf::21                   0                       # What write queue length does an incoming req see (Count)
system.far_mem_ctrl.wrQLenPdf::22                   0                       # What write queue length does an incoming req see (Count)
system.far_mem_ctrl.wrQLenPdf::23                   0                       # What write queue length does an incoming req see (Count)
system.far_mem_ctrl.wrQLenPdf::24                   0                       # What write queue length does an incoming req see (Count)
system.far_mem_ctrl.wrQLenPdf::25                   0                       # What write queue length does an incoming req see (Count)
system.far_mem_ctrl.wrQLenPdf::26                   0                       # What write queue length does an incoming req see (Count)
system.far_mem_ctrl.wrQLenPdf::27                   0                       # What write queue length does an incoming req see (Count)
system.far_mem_ctrl.wrQLenPdf::28                   0                       # What write queue length does an incoming req see (Count)
system.far_mem_ctrl.wrQLenPdf::29                   0                       # What write queue length does an incoming req see (Count)
system.far_mem_ctrl.wrQLenPdf::30                   0                       # What write queue length does an incoming req see (Count)
system.far_mem_ctrl.wrQLenPdf::31                   0                       # What write queue length does an incoming req see (Count)
system.far_mem_ctrl.wrQLenPdf::32                   0                       # What write queue length does an incoming req see (Count)
system.far_mem_ctrl.wrQLenPdf::33                   0                       # What write queue length does an incoming req see (Count)
system.far_mem_ctrl.wrQLenPdf::34                   0                       # What write queue length does an incoming req see (Count)
system.far_mem_ctrl.wrQLenPdf::35                   0                       # What write queue length does an incoming req see (Count)
system.far_mem_ctrl.wrQLenPdf::36                   0                       # What write queue length does an incoming req see (Count)
system.far_mem_ctrl.wrQLenPdf::37                   0                       # What write queue length does an incoming req see (Count)
system.far_mem_ctrl.wrQLenPdf::38                   0                       # What write queue length does an incoming req see (Count)
system.far_mem_ctrl.wrQLenPdf::39                   0                       # What write queue length does an incoming req see (Count)
system.far_mem_ctrl.wrQLenPdf::40                   0                       # What write queue length does an incoming req see (Count)
system.far_mem_ctrl.wrQLenPdf::41                   0                       # What write queue length does an incoming req see (Count)
system.far_mem_ctrl.wrQLenPdf::42                   0                       # What write queue length does an incoming req see (Count)
system.far_mem_ctrl.wrQLenPdf::43                   0                       # What write queue length does an incoming req see (Count)
system.far_mem_ctrl.wrQLenPdf::44                   0                       # What write queue length does an incoming req see (Count)
system.far_mem_ctrl.wrQLenPdf::45                   0                       # What write queue length does an incoming req see (Count)
system.far_mem_ctrl.wrQLenPdf::46                   0                       # What write queue length does an incoming req see (Count)
system.far_mem_ctrl.wrQLenPdf::47                   0                       # What write queue length does an incoming req see (Count)
system.far_mem_ctrl.wrQLenPdf::48                   0                       # What write queue length does an incoming req see (Count)
system.far_mem_ctrl.wrQLenPdf::49                   0                       # What write queue length does an incoming req see (Count)
system.far_mem_ctrl.wrQLenPdf::50                   0                       # What write queue length does an incoming req see (Count)
system.far_mem_ctrl.wrQLenPdf::51                   0                       # What write queue length does an incoming req see (Count)
system.far_mem_ctrl.wrQLenPdf::52                   0                       # What write queue length does an incoming req see (Count)
system.far_mem_ctrl.wrQLenPdf::53                   0                       # What write queue length does an incoming req see (Count)
system.far_mem_ctrl.wrQLenPdf::54                   0                       # What write queue length does an incoming req see (Count)
system.far_mem_ctrl.wrQLenPdf::55                   0                       # What write queue length does an incoming req see (Count)
system.far_mem_ctrl.wrQLenPdf::56                   0                       # What write queue length does an incoming req see (Count)
system.far_mem_ctrl.wrQLenPdf::57                   0                       # What write queue length does an incoming req see (Count)
system.far_mem_ctrl.wrQLenPdf::58                   0                       # What write queue length does an incoming req see (Count)
system.far_mem_ctrl.wrQLenPdf::59                   0                       # What write queue length does an incoming req see (Count)
system.far_mem_ctrl.wrQLenPdf::60                   0                       # What write queue length does an incoming req see (Count)
system.far_mem_ctrl.wrQLenPdf::61                   0                       # What write queue length does an incoming req see (Count)
system.far_mem_ctrl.wrQLenPdf::62                   0                       # What write queue length does an incoming req see (Count)
system.far_mem_ctrl.wrQLenPdf::63                   0                       # What write queue length does an incoming req see (Count)
system.far_mem_ctrl.wrQLenPdf::64                   0                       # What write queue length does an incoming req see (Count)
system.far_mem_ctrl.wrQLenPdf::65                   0                       # What write queue length does an incoming req see (Count)
system.far_mem_ctrl.wrQLenPdf::66                   0                       # What write queue length does an incoming req see (Count)
system.far_mem_ctrl.wrQLenPdf::67                   0                       # What write queue length does an incoming req see (Count)
system.far_mem_ctrl.wrQLenPdf::68                   0                       # What write queue length does an incoming req see (Count)
system.far_mem_ctrl.wrQLenPdf::69                   0                       # What write queue length does an incoming req see (Count)
system.far_mem_ctrl.wrQLenPdf::70                   0                       # What write queue length does an incoming req see (Count)
system.far_mem_ctrl.wrQLenPdf::71                   0                       # What write queue length does an incoming req see (Count)
system.far_mem_ctrl.wrQLenPdf::72                   0                       # What write queue length does an incoming req see (Count)
system.far_mem_ctrl.wrQLenPdf::73                   0                       # What write queue length does an incoming req see (Count)
system.far_mem_ctrl.wrQLenPdf::74                   0                       # What write queue length does an incoming req see (Count)
system.far_mem_ctrl.wrQLenPdf::75                   0                       # What write queue length does an incoming req see (Count)
system.far_mem_ctrl.wrQLenPdf::76                   0                       # What write queue length does an incoming req see (Count)
system.far_mem_ctrl.wrQLenPdf::77                   0                       # What write queue length does an incoming req see (Count)
system.far_mem_ctrl.wrQLenPdf::78                   0                       # What write queue length does an incoming req see (Count)
system.far_mem_ctrl.wrQLenPdf::79                   0                       # What write queue length does an incoming req see (Count)
system.far_mem_ctrl.wrQLenPdf::80                   0                       # What write queue length does an incoming req see (Count)
system.far_mem_ctrl.wrQLenPdf::81                   0                       # What write queue length does an incoming req see (Count)
system.far_mem_ctrl.wrQLenPdf::82                   0                       # What write queue length does an incoming req see (Count)
system.far_mem_ctrl.wrQLenPdf::83                   0                       # What write queue length does an incoming req see (Count)
system.far_mem_ctrl.wrQLenPdf::84                   0                       # What write queue length does an incoming req see (Count)
system.far_mem_ctrl.wrQLenPdf::85                   0                       # What write queue length does an incoming req see (Count)
system.far_mem_ctrl.wrQLenPdf::86                   0                       # What write queue length does an incoming req see (Count)
system.far_mem_ctrl.wrQLenPdf::87                   0                       # What write queue length does an incoming req see (Count)
system.far_mem_ctrl.wrQLenPdf::88                   0                       # What write queue length does an incoming req see (Count)
system.far_mem_ctrl.wrQLenPdf::89                   0                       # What write queue length does an incoming req see (Count)
system.far_mem_ctrl.wrQLenPdf::90                   0                       # What write queue length does an incoming req see (Count)
system.far_mem_ctrl.wrQLenPdf::91                   0                       # What write queue length does an incoming req see (Count)
system.far_mem_ctrl.wrQLenPdf::92                   0                       # What write queue length does an incoming req see (Count)
system.far_mem_ctrl.wrQLenPdf::93                   0                       # What write queue length does an incoming req see (Count)
system.far_mem_ctrl.wrQLenPdf::94                   0                       # What write queue length does an incoming req see (Count)
system.far_mem_ctrl.wrQLenPdf::95                   0                       # What write queue length does an incoming req see (Count)
system.far_mem_ctrl.wrQLenPdf::96                   0                       # What write queue length does an incoming req see (Count)
system.far_mem_ctrl.wrQLenPdf::97                   0                       # What write queue length does an incoming req see (Count)
system.far_mem_ctrl.wrQLenPdf::98                   0                       # What write queue length does an incoming req see (Count)
system.far_mem_ctrl.wrQLenPdf::99                   0                       # What write queue length does an incoming req see (Count)
system.far_mem_ctrl.wrQLenPdf::100                  0                       # What write queue length does an incoming req see (Count)
system.far_mem_ctrl.wrQLenPdf::101                  0                       # What write queue length does an incoming req see (Count)
system.far_mem_ctrl.wrQLenPdf::102                  0                       # What write queue length does an incoming req see (Count)
system.far_mem_ctrl.wrQLenPdf::103                  0                       # What write queue length does an incoming req see (Count)
system.far_mem_ctrl.wrQLenPdf::104                  0                       # What write queue length does an incoming req see (Count)
system.far_mem_ctrl.wrQLenPdf::105                  0                       # What write queue length does an incoming req see (Count)
system.far_mem_ctrl.wrQLenPdf::106                  0                       # What write queue length does an incoming req see (Count)
system.far_mem_ctrl.wrQLenPdf::107                  0                       # What write queue length does an incoming req see (Count)
system.far_mem_ctrl.wrQLenPdf::108                  0                       # What write queue length does an incoming req see (Count)
system.far_mem_ctrl.wrQLenPdf::109                  0                       # What write queue length does an incoming req see (Count)
system.far_mem_ctrl.wrQLenPdf::110                  0                       # What write queue length does an incoming req see (Count)
system.far_mem_ctrl.wrQLenPdf::111                  0                       # What write queue length does an incoming req see (Count)
system.far_mem_ctrl.wrQLenPdf::112                  0                       # What write queue length does an incoming req see (Count)
system.far_mem_ctrl.wrQLenPdf::113                  0                       # What write queue length does an incoming req see (Count)
system.far_mem_ctrl.wrQLenPdf::114                  0                       # What write queue length does an incoming req see (Count)
system.far_mem_ctrl.wrQLenPdf::115                  0                       # What write queue length does an incoming req see (Count)
system.far_mem_ctrl.wrQLenPdf::116                  0                       # What write queue length does an incoming req see (Count)
system.far_mem_ctrl.wrQLenPdf::117                  0                       # What write queue length does an incoming req see (Count)
system.far_mem_ctrl.wrQLenPdf::118                  0                       # What write queue length does an incoming req see (Count)
system.far_mem_ctrl.wrQLenPdf::119                  0                       # What write queue length does an incoming req see (Count)
system.far_mem_ctrl.wrQLenPdf::120                  0                       # What write queue length does an incoming req see (Count)
system.far_mem_ctrl.wrQLenPdf::121                  0                       # What write queue length does an incoming req see (Count)
system.far_mem_ctrl.wrQLenPdf::122                  0                       # What write queue length does an incoming req see (Count)
system.far_mem_ctrl.wrQLenPdf::123                  0                       # What write queue length does an incoming req see (Count)
system.far_mem_ctrl.wrQLenPdf::124                  0                       # What write queue length does an incoming req see (Count)
system.far_mem_ctrl.wrQLenPdf::125                  0                       # What write queue length does an incoming req see (Count)
system.far_mem_ctrl.wrQLenPdf::126                  0                       # What write queue length does an incoming req see (Count)
system.far_mem_ctrl.wrQLenPdf::127                  0                       # What write queue length does an incoming req see (Count)
system.far_mem_ctrl.bytesReadWrQ                    0                       # Total number of bytes read from write queue (Byte)
system.far_mem_ctrl.bytesReadSys            117024384                       # Total read bytes from the system interface side (Byte)
system.far_mem_ctrl.bytesWrittenSys                 0                       # Total written bytes from the system interface side (Byte)
system.far_mem_ctrl.avgRdBWSys           11702435385.45264435                       # Average system read bandwidth in Byte/s ((Byte/Second))
system.far_mem_ctrl.avgWrBWSys             0.00000000                       # Average system write bandwidth in Byte/s ((Byte/Second))
system.far_mem_ctrl.totGap                10000001576                       # Total gap between requests (Tick)
system.far_mem_ctrl.avgGap                    5468.95                       # Average gap between requests ((Tick/Count))
system.far_mem_ctrl.requestorReadBytes::writebacks    117024128                       # Per-requestor bytes read from memory (Byte)
system.far_mem_ctrl.requestorReadRate::writebacks 11702409785.459238052368                       # Per-requestor bytes read from memory rate ((Byte/Second))
system.far_mem_ctrl.requestorReadAccesses::writebacks      1828506                       # Per-requestor read serviced memory accesses (Count)
system.far_mem_ctrl.requestorReadTotalLat::writebacks 125902728112                       # Per-requestor read total memory access latency (Tick)
system.far_mem_ctrl.requestorReadAvgLat::writebacks     68855.52                       # Per-requestor read average memory access latency ((Tick/Count))
system.far_mem_ctrl.dram.bytesRead::writebacks    117023552                       # Number of bytes read from this memory (Byte)
system.far_mem_ctrl.dram.bytesRead::total    117023552                       # Number of bytes read from this memory (Byte)
system.far_mem_ctrl.dram.numReads::writebacks      1828493                       # Number of read requests responded to by this memory (Count)
system.far_mem_ctrl.dram.numReads::total      1828493                       # Number of read requests responded to by this memory (Count)
system.far_mem_ctrl.dram.bwRead::writebacks  11702352185                       # Total read bandwidth from this memory ((Byte/Second))
system.far_mem_ctrl.dram.bwRead::total    11702352185                       # Total read bandwidth from this memory ((Byte/Second))
system.far_mem_ctrl.dram.bwTotal::writebacks  11702352185                       # Total bandwidth to/from this memory ((Byte/Second))
system.far_mem_ctrl.dram.bwTotal::total   11702352185                       # Total bandwidth to/from this memory ((Byte/Second))
system.far_mem_ctrl.dram.readBursts           1828502                       # Number of DRAM read bursts (Count)
system.far_mem_ctrl.dram.writeBursts                0                       # Number of DRAM write bursts (Count)
system.far_mem_ctrl.dram.perBankRdBursts::0        56585                       # Per bank write bursts (Count)
system.far_mem_ctrl.dram.perBankRdBursts::1        56927                       # Per bank write bursts (Count)
system.far_mem_ctrl.dram.perBankRdBursts::2        57261                       # Per bank write bursts (Count)
system.far_mem_ctrl.dram.perBankRdBursts::3        56879                       # Per bank write bursts (Count)
system.far_mem_ctrl.dram.perBankRdBursts::4        57384                       # Per bank write bursts (Count)
system.far_mem_ctrl.dram.perBankRdBursts::5        57052                       # Per bank write bursts (Count)
system.far_mem_ctrl.dram.perBankRdBursts::6        56910                       # Per bank write bursts (Count)
system.far_mem_ctrl.dram.perBankRdBursts::7        57021                       # Per bank write bursts (Count)
system.far_mem_ctrl.dram.perBankRdBursts::8        56832                       # Per bank write bursts (Count)
system.far_mem_ctrl.dram.perBankRdBursts::9        57306                       # Per bank write bursts (Count)
system.far_mem_ctrl.dram.perBankRdBursts::10        57381                       # Per bank write bursts (Count)
system.far_mem_ctrl.dram.perBankRdBursts::11        57120                       # Per bank write bursts (Count)
system.far_mem_ctrl.dram.perBankRdBursts::12        57533                       # Per bank write bursts (Count)
system.far_mem_ctrl.dram.perBankRdBursts::13        56817                       # Per bank write bursts (Count)
system.far_mem_ctrl.dram.perBankRdBursts::14        57045                       # Per bank write bursts (Count)
system.far_mem_ctrl.dram.perBankRdBursts::15        57060                       # Per bank write bursts (Count)
system.far_mem_ctrl.dram.perBankRdBursts::16        56853                       # Per bank write bursts (Count)
system.far_mem_ctrl.dram.perBankRdBursts::17        57132                       # Per bank write bursts (Count)
system.far_mem_ctrl.dram.perBankRdBursts::18        57028                       # Per bank write bursts (Count)
system.far_mem_ctrl.dram.perBankRdBursts::19        57424                       # Per bank write bursts (Count)
system.far_mem_ctrl.dram.perBankRdBursts::20        57357                       # Per bank write bursts (Count)
system.far_mem_ctrl.dram.perBankRdBursts::21        57320                       # Per bank write bursts (Count)
system.far_mem_ctrl.dram.perBankRdBursts::22        57029                       # Per bank write bursts (Count)
system.far_mem_ctrl.dram.perBankRdBursts::23        57691                       # Per bank write bursts (Count)
system.far_mem_ctrl.dram.perBankRdBursts::24        57143                       # Per bank write bursts (Count)
system.far_mem_ctrl.dram.perBankRdBursts::25        57130                       # Per bank write bursts (Count)
system.far_mem_ctrl.dram.perBankRdBursts::26        56730                       # Per bank write bursts (Count)
system.far_mem_ctrl.dram.perBankRdBursts::27        57142                       # Per bank write bursts (Count)
system.far_mem_ctrl.dram.perBankRdBursts::28        57165                       # Per bank write bursts (Count)
system.far_mem_ctrl.dram.perBankRdBursts::29        57280                       # Per bank write bursts (Count)
system.far_mem_ctrl.dram.perBankRdBursts::30        57353                       # Per bank write bursts (Count)
system.far_mem_ctrl.dram.perBankRdBursts::31        57612                       # Per bank write bursts (Count)
system.far_mem_ctrl.dram.perBankWrBursts::0            0                       # Per bank write bursts (Count)
system.far_mem_ctrl.dram.perBankWrBursts::1            0                       # Per bank write bursts (Count)
system.far_mem_ctrl.dram.perBankWrBursts::2            0                       # Per bank write bursts (Count)
system.far_mem_ctrl.dram.perBankWrBursts::3            0                       # Per bank write bursts (Count)
system.far_mem_ctrl.dram.perBankWrBursts::4            0                       # Per bank write bursts (Count)
system.far_mem_ctrl.dram.perBankWrBursts::5            0                       # Per bank write bursts (Count)
system.far_mem_ctrl.dram.perBankWrBursts::6            0                       # Per bank write bursts (Count)
system.far_mem_ctrl.dram.perBankWrBursts::7            0                       # Per bank write bursts (Count)
system.far_mem_ctrl.dram.perBankWrBursts::8            0                       # Per bank write bursts (Count)
system.far_mem_ctrl.dram.perBankWrBursts::9            0                       # Per bank write bursts (Count)
system.far_mem_ctrl.dram.perBankWrBursts::10            0                       # Per bank write bursts (Count)
system.far_mem_ctrl.dram.perBankWrBursts::11            0                       # Per bank write bursts (Count)
system.far_mem_ctrl.dram.perBankWrBursts::12            0                       # Per bank write bursts (Count)
system.far_mem_ctrl.dram.perBankWrBursts::13            0                       # Per bank write bursts (Count)
system.far_mem_ctrl.dram.perBankWrBursts::14            0                       # Per bank write bursts (Count)
system.far_mem_ctrl.dram.perBankWrBursts::15            0                       # Per bank write bursts (Count)
system.far_mem_ctrl.dram.perBankWrBursts::16            0                       # Per bank write bursts (Count)
system.far_mem_ctrl.dram.perBankWrBursts::17            0                       # Per bank write bursts (Count)
system.far_mem_ctrl.dram.perBankWrBursts::18            0                       # Per bank write bursts (Count)
system.far_mem_ctrl.dram.perBankWrBursts::19            0                       # Per bank write bursts (Count)
system.far_mem_ctrl.dram.perBankWrBursts::20            0                       # Per bank write bursts (Count)
system.far_mem_ctrl.dram.perBankWrBursts::21            0                       # Per bank write bursts (Count)
system.far_mem_ctrl.dram.perBankWrBursts::22            0                       # Per bank write bursts (Count)
system.far_mem_ctrl.dram.perBankWrBursts::23            0                       # Per bank write bursts (Count)
system.far_mem_ctrl.dram.perBankWrBursts::24            0                       # Per bank write bursts (Count)
system.far_mem_ctrl.dram.perBankWrBursts::25            0                       # Per bank write bursts (Count)
system.far_mem_ctrl.dram.perBankWrBursts::26            0                       # Per bank write bursts (Count)
system.far_mem_ctrl.dram.perBankWrBursts::27            0                       # Per bank write bursts (Count)
system.far_mem_ctrl.dram.perBankWrBursts::28            0                       # Per bank write bursts (Count)
system.far_mem_ctrl.dram.perBankWrBursts::29            0                       # Per bank write bursts (Count)
system.far_mem_ctrl.dram.perBankWrBursts::30            0                       # Per bank write bursts (Count)
system.far_mem_ctrl.dram.perBankWrBursts::31            0                       # Per bank write bursts (Count)
system.far_mem_ctrl.dram.totQLat          93918571128                       # Total ticks spent queuing (Tick)
system.far_mem_ctrl.dram.totBusLat         6092568664                       # Total ticks spent in databus transfers (Tick)
system.far_mem_ctrl.dram.totMemAccLat    125902728112                       # Total ticks spent from burst creation until serviced by the DRAM (Tick)
system.far_mem_ctrl.dram.avgQLat             51363.67                       # Average queueing delay per DRAM burst ((Tick/Count))
system.far_mem_ctrl.dram.avgBusLat            3332.00                       # Average bus latency per DRAM burst ((Tick/Count))
system.far_mem_ctrl.dram.avgMemAccLat        68855.67                       # Average memory access latency per DRAM burst ((Tick/Count))
system.far_mem_ctrl.dram.readRowHits              187                       # Number of row buffer hits during reads (Count)
system.far_mem_ctrl.dram.writeRowHits               0                       # Number of row buffer hits during writes (Count)
system.far_mem_ctrl.dram.readRowHitRate          0.01                       # Row buffer hit rate for reads (Ratio)
system.far_mem_ctrl.dram.writeRowHitRate          nan                       # Row buffer hit rate for writes (Ratio)
system.far_mem_ctrl.dram.bytesPerActivate::samples      1828284                       # Bytes accessed per row activation (Byte)
system.far_mem_ctrl.dram.bytesPerActivate::mean    64.006546                       # Bytes accessed per row activation (Byte)
system.far_mem_ctrl.dram.bytesPerActivate::gmean    64.004538                       # Bytes accessed per row activation (Byte)
system.far_mem_ctrl.dram.bytesPerActivate::stdev     0.647227                       # Bytes accessed per row activation (Byte)
system.far_mem_ctrl.dram.bytesPerActivate::64-79      1828097     99.99%     99.99% # Bytes accessed per row activation (Byte)
system.far_mem_ctrl.dram.bytesPerActivate::128-143          187      0.01%    100.00% # Bytes accessed per row activation (Byte)
system.far_mem_ctrl.dram.bytesPerActivate::total      1828284                       # Bytes accessed per row activation (Byte)
system.far_mem_ctrl.dram.bytesRead          117024128                       # Total bytes read (Byte)
system.far_mem_ctrl.dram.bytesWritten               0                       # Total bytes written (Byte)
system.far_mem_ctrl.dram.avgRdBW         11702.409785                       # Average DRAM read bandwidth in MiBytes/s ((Byte/Second))
system.far_mem_ctrl.dram.avgWrBW                    0                       # Average DRAM write bandwidth in MiBytes/s ((Byte/Second))
system.far_mem_ctrl.dram.peakBW              19207.00                       # Theoretical peak bandwidth in MiByte/s ((Byte/Second))
system.far_mem_ctrl.dram.busUtil                60.93                       # Data bus utilization in percentage (Ratio)
system.far_mem_ctrl.dram.busUtilRead            60.93                       # Data bus utilization in percentage for reads (Ratio)
system.far_mem_ctrl.dram.busUtilWrite            0.00                       # Data bus utilization in percentage for writes (Ratio)
system.far_mem_ctrl.dram.pageHitRate             0.01                       # Row buffer hit rate, read and write combined (Ratio)
system.far_mem_ctrl.dram.power_state.pwrStateResidencyTicks::UNDEFINED  10000002576                       # Cumulative time (in ticks) in various power states (Tick)
system.far_mem_ctrl.dram.rank0.actEnergy 2847429932.256001                       # Energy for activate commands per rank (pJ) (Joule)
system.far_mem_ctrl.dram.rank0.preEnergy 3785559394.310413                       # Energy for precharge commands per rank (pJ) (Joule)
system.far_mem_ctrl.dram.rank0.readEnergy 3840825726.931209                       # Energy for read commands per rank (pJ) (Joule)
system.far_mem_ctrl.dram.rank0.writeEnergy            0                       # Energy for write commands per rank (pJ) (Joule)
system.far_mem_ctrl.dram.rank0.refreshEnergy 1778824873.324749                       # Energy for refresh commands per rank (pJ) (Joule)
system.far_mem_ctrl.dram.rank0.actBackEnergy 8457405428.102386                       # Energy for active background per rank (pJ) (Joule)
system.far_mem_ctrl.dram.rank0.preBackEnergy 29656804.531200                       # Energy for precharge background per rank (pJ) (Joule)
system.far_mem_ctrl.dram.rank0.actPowerDownEnergy            0                       # Energy for active power-down per rank (pJ) (Joule)
system.far_mem_ctrl.dram.rank0.prePowerDownEnergy            0                       # Energy for precharge power-down per rank (pJ) (Joule)
system.far_mem_ctrl.dram.rank0.selfRefreshEnergy            0                       # Energy for self refresh per rank (pJ) (Joule)
system.far_mem_ctrl.dram.rank0.totalEnergy 20739702159.456013                       # Total energy per rank (pJ) (Joule)
system.far_mem_ctrl.dram.rank0.averagePower  2073.969682                       # Core power per rank (mW) (Watt)
system.far_mem_ctrl.dram.rank0.totalIdleTime            0                       # Total Idle time Per DRAM Rank (Tick)
system.far_mem_ctrl.dram.rank0.pwrStateTime::IDLE      9470984                       # Time in different power states (Tick)
system.far_mem_ctrl.dram.rank0.pwrStateTime::REF    449400000                       # Time in different power states (Tick)
system.far_mem_ctrl.dram.rank0.pwrStateTime::SREF            0                       # Time in different power states (Tick)
system.far_mem_ctrl.dram.rank0.pwrStateTime::PRE_PDN            0                       # Time in different power states (Tick)
system.far_mem_ctrl.dram.rank0.pwrStateTime::ACT   9541131592                       # Time in different power states (Tick)
system.far_mem_ctrl.dram.rank0.pwrStateTime::ACT_PDN            0                       # Time in different power states (Tick)
system.far_mem_ctrl.dram.rank1.actEnergy 2854618655.615996                       # Energy for activate commands per rank (pJ) (Joule)
system.far_mem_ctrl.dram.rank1.preEnergy 3795125002.536008                       # Energy for precharge commands per rank (pJ) (Joule)
system.far_mem_ctrl.dram.rank1.readEnergy 3850399303.968008                       # Energy for read commands per rank (pJ) (Joule)
system.far_mem_ctrl.dram.rank1.writeEnergy            0                       # Energy for write commands per rank (pJ) (Joule)
system.far_mem_ctrl.dram.rank1.refreshEnergy 1778824873.324749                       # Energy for refresh commands per rank (pJ) (Joule)
system.far_mem_ctrl.dram.rank1.actBackEnergy 8457711161.759988                       # Energy for active background per rank (pJ) (Joule)
system.far_mem_ctrl.dram.rank1.preBackEnergy 29421890.534400                       # Energy for precharge background per rank (pJ) (Joule)
system.far_mem_ctrl.dram.rank1.actPowerDownEnergy            0                       # Energy for active power-down per rank (pJ) (Joule)
system.far_mem_ctrl.dram.rank1.prePowerDownEnergy            0                       # Energy for precharge power-down per rank (pJ) (Joule)
system.far_mem_ctrl.dram.rank1.selfRefreshEnergy            0                       # Energy for self refresh per rank (pJ) (Joule)
system.far_mem_ctrl.dram.rank1.totalEnergy 20766100887.739178                       # Total energy per rank (pJ) (Joule)
system.far_mem_ctrl.dram.rank1.averagePower  2076.609554                       # Core power per rank (mW) (Watt)
system.far_mem_ctrl.dram.rank1.totalIdleTime            0                       # Total Idle time Per DRAM Rank (Tick)
system.far_mem_ctrl.dram.rank1.pwrStateTime::IDLE      9173940                       # Time in different power states (Tick)
system.far_mem_ctrl.dram.rank1.pwrStateTime::REF    449400000                       # Time in different power states (Tick)
system.far_mem_ctrl.dram.rank1.pwrStateTime::SREF            0                       # Time in different power states (Tick)
system.far_mem_ctrl.dram.rank1.pwrStateTime::PRE_PDN            0                       # Time in different power states (Tick)
system.far_mem_ctrl.dram.rank1.pwrStateTime::ACT   9541428636                       # Time in different power states (Tick)
system.far_mem_ctrl.dram.rank1.pwrStateTime::ACT_PDN            0                       # Time in different power states (Tick)
system.far_mem_ctrl.power_state.pwrStateResidencyTicks::UNDEFINED  10000002576                       # Cumulative time (in ticks) in various power states (Tick)
system.generator.numSuppressed                      0                       # Number of suppressed packets to non-memory space (Count)
system.generator.numPackets                   2757310                       # Number of packets generated (Count)
system.generator.numRetries                   2756165                       # Number of retries (Count)
system.generator.retryTicks                9998856266                       # Time spent waiting due to back-pressure (Tick)
system.generator.bytesRead                  117022976                       # Number of bytes read (Byte)
system.generator.bytesWritten                59443264                       # Number of bytes written (Byte)
system.generator.totalReadLatency        224248398612                       # Total latency of read requests (Tick)
system.generator.totalWriteLatency        22060645234                       # Total latency of write requests (Tick)
system.generator.totalReads                   1828484                       # Total num of reads (Count)
system.generator.totalWrites                   928801                       # Total num of writes (Count)
system.generator.avgReadLatency          122641.706798                       # Avg latency of read requests ((Tick/Count))
system.generator.avgWriteLatency         23751.745782                       # Avg latency of write requests ((Tick/Count))
system.generator.readBW                  11702294585.488914                       # Read bandwidth ((Byte/Second))
system.generator.writeBW                 5944324868.741914                       # Write bandwidth ((Byte/Second))
system.generator.power_state.pwrStateResidencyTicks::UNDEFINED  10000002576                       # Cumulative time (in ticks) in various power states (Tick)
system.loc_mem_ctrl.avgPriority_writebacks::samples   2757054.00                       # Average QoS priority value for accepted requests (Count)
system.loc_mem_ctrl.priorityMinLatency   0.000000051476                       # per QoS priority minimum request to response latency (Second)
system.loc_mem_ctrl.priorityMaxLatency   0.000008642662                       # per QoS priority maximum request to response latency (Second)
system.loc_mem_ctrl.numReadWriteTurnArounds            0                       # Number of turnarounds from READ to WRITE (Count)
system.loc_mem_ctrl.numWriteReadTurnArounds            0                       # Number of turnarounds from WRITE to READ (Count)
system.loc_mem_ctrl.numStayReadState          2758275                       # Number of times bus staying in READ state (Count)
system.loc_mem_ctrl.numStayWriteState               0                       # Number of times bus staying in WRITE state (Count)
system.loc_mem_ctrl.readReqs                        0                       # Number of read requests accepted (Count)
system.loc_mem_ctrl.writeReqs                 2757057                       # Number of write requests accepted (Count)
system.loc_mem_ctrl.readBursts                      0                       # Number of controller read bursts, including those serviced by the write queue (Count)
system.loc_mem_ctrl.writeBursts               2757057                       # Number of controller write bursts, including those merged in the write queue (Count)
system.loc_mem_ctrl.servicedByWrQ                   0                       # Number of controller read bursts serviced by the write queue (Count)
system.loc_mem_ctrl.mergedWrBursts                  3                       # Number of controller write bursts merged with an existing one (Count)
system.loc_mem_ctrl.avgRdQLen                    0.00                       # Average read queue length when enqueuing ((Count/Tick))
system.loc_mem_ctrl.avgWrQLen                  128.00                       # Average write queue length when enqueuing ((Count/Tick))
system.loc_mem_ctrl.numRdRetry                      0                       # Number of times read queue was full causing retry (Count)
system.loc_mem_ctrl.numWrRetry                4258685                       # Number of times write queue was full causing retry (Count)
system.loc_mem_ctrl.readPktSize::0                  0                       # Read request sizes (log2) (Count)
system.loc_mem_ctrl.readPktSize::1                  0                       # Read request sizes (log2) (Count)
system.loc_mem_ctrl.readPktSize::2                  0                       # Read request sizes (log2) (Count)
system.loc_mem_ctrl.readPktSize::3                  0                       # Read request sizes (log2) (Count)
system.loc_mem_ctrl.readPktSize::4                  0                       # Read request sizes (log2) (Count)
system.loc_mem_ctrl.readPktSize::5                  0                       # Read request sizes (log2) (Count)
system.loc_mem_ctrl.readPktSize::6                  0                       # Read request sizes (log2) (Count)
system.loc_mem_ctrl.writePktSize::0                 0                       # Write request sizes (log2) (Count)
system.loc_mem_ctrl.writePktSize::1                 0                       # Write request sizes (log2) (Count)
system.loc_mem_ctrl.writePktSize::2                 0                       # Write request sizes (log2) (Count)
system.loc_mem_ctrl.writePktSize::3                 0                       # Write request sizes (log2) (Count)
system.loc_mem_ctrl.writePktSize::4                 0                       # Write request sizes (log2) (Count)
system.loc_mem_ctrl.writePktSize::5                 0                       # Write request sizes (log2) (Count)
system.loc_mem_ctrl.writePktSize::6           2757057                       # Write request sizes (log2) (Count)
system.loc_mem_ctrl.rdQLenPdf::0                    0                       # What read queue length does an incoming req see (Count)
system.loc_mem_ctrl.rdQLenPdf::1                    0                       # What read queue length does an incoming req see (Count)
system.loc_mem_ctrl.rdQLenPdf::2                    0                       # What read queue length does an incoming req see (Count)
system.loc_mem_ctrl.rdQLenPdf::3                    0                       # What read queue length does an incoming req see (Count)
system.loc_mem_ctrl.rdQLenPdf::4                    0                       # What read queue length does an incoming req see (Count)
system.loc_mem_ctrl.rdQLenPdf::5                    0                       # What read queue length does an incoming req see (Count)
system.loc_mem_ctrl.rdQLenPdf::6                    0                       # What read queue length does an incoming req see (Count)
system.loc_mem_ctrl.rdQLenPdf::7                    0                       # What read queue length does an incoming req see (Count)
system.loc_mem_ctrl.rdQLenPdf::8                    0                       # What read queue length does an incoming req see (Count)
system.loc_mem_ctrl.rdQLenPdf::9                    0                       # What read queue length does an incoming req see (Count)
system.loc_mem_ctrl.rdQLenPdf::10                   0                       # What read queue length does an incoming req see (Count)
system.loc_mem_ctrl.rdQLenPdf::11                   0                       # What read queue length does an incoming req see (Count)
system.loc_mem_ctrl.rdQLenPdf::12                   0                       # What read queue length does an incoming req see (Count)
system.loc_mem_ctrl.rdQLenPdf::13                   0                       # What read queue length does an incoming req see (Count)
system.loc_mem_ctrl.rdQLenPdf::14                   0                       # What read queue length does an incoming req see (Count)
system.loc_mem_ctrl.rdQLenPdf::15                   0                       # What read queue length does an incoming req see (Count)
system.loc_mem_ctrl.rdQLenPdf::16                   0                       # What read queue length does an incoming req see (Count)
system.loc_mem_ctrl.rdQLenPdf::17                   0                       # What read queue length does an incoming req see (Count)
system.loc_mem_ctrl.rdQLenPdf::18                   0                       # What read queue length does an incoming req see (Count)
system.loc_mem_ctrl.rdQLenPdf::19                   0                       # What read queue length does an incoming req see (Count)
system.loc_mem_ctrl.rdQLenPdf::20                   0                       # What read queue length does an incoming req see (Count)
system.loc_mem_ctrl.rdQLenPdf::21                   0                       # What read queue length does an incoming req see (Count)
system.loc_mem_ctrl.rdQLenPdf::22                   0                       # What read queue length does an incoming req see (Count)
system.loc_mem_ctrl.rdQLenPdf::23                   0                       # What read queue length does an incoming req see (Count)
system.loc_mem_ctrl.rdQLenPdf::24                   0                       # What read queue length does an incoming req see (Count)
system.loc_mem_ctrl.rdQLenPdf::25                   0                       # What read queue length does an incoming req see (Count)
system.loc_mem_ctrl.rdQLenPdf::26                   0                       # What read queue length does an incoming req see (Count)
system.loc_mem_ctrl.rdQLenPdf::27                   0                       # What read queue length does an incoming req see (Count)
system.loc_mem_ctrl.rdQLenPdf::28                   0                       # What read queue length does an incoming req see (Count)
system.loc_mem_ctrl.rdQLenPdf::29                   0                       # What read queue length does an incoming req see (Count)
system.loc_mem_ctrl.rdQLenPdf::30                   0                       # What read queue length does an incoming req see (Count)
system.loc_mem_ctrl.rdQLenPdf::31                   0                       # What read queue length does an incoming req see (Count)
system.loc_mem_ctrl.rdQLenPdf::32                   0                       # What read queue length does an incoming req see (Count)
system.loc_mem_ctrl.rdQLenPdf::33                   0                       # What read queue length does an incoming req see (Count)
system.loc_mem_ctrl.rdQLenPdf::34                   0                       # What read queue length does an incoming req see (Count)
system.loc_mem_ctrl.rdQLenPdf::35                   0                       # What read queue length does an incoming req see (Count)
system.loc_mem_ctrl.rdQLenPdf::36                   0                       # What read queue length does an incoming req see (Count)
system.loc_mem_ctrl.rdQLenPdf::37                   0                       # What read queue length does an incoming req see (Count)
system.loc_mem_ctrl.rdQLenPdf::38                   0                       # What read queue length does an incoming req see (Count)
system.loc_mem_ctrl.rdQLenPdf::39                   0                       # What read queue length does an incoming req see (Count)
system.loc_mem_ctrl.rdQLenPdf::40                   0                       # What read queue length does an incoming req see (Count)
system.loc_mem_ctrl.rdQLenPdf::41                   0                       # What read queue length does an incoming req see (Count)
system.loc_mem_ctrl.rdQLenPdf::42                   0                       # What read queue length does an incoming req see (Count)
system.loc_mem_ctrl.rdQLenPdf::43                   0                       # What read queue length does an incoming req see (Count)
system.loc_mem_ctrl.rdQLenPdf::44                   0                       # What read queue length does an incoming req see (Count)
system.loc_mem_ctrl.rdQLenPdf::45                   0                       # What read queue length does an incoming req see (Count)
system.loc_mem_ctrl.rdQLenPdf::46                   0                       # What read queue length does an incoming req see (Count)
system.loc_mem_ctrl.rdQLenPdf::47                   0                       # What read queue length does an incoming req see (Count)
system.loc_mem_ctrl.rdQLenPdf::48                   0                       # What read queue length does an incoming req see (Count)
system.loc_mem_ctrl.rdQLenPdf::49                   0                       # What read queue length does an incoming req see (Count)
system.loc_mem_ctrl.rdQLenPdf::50                   0                       # What read queue length does an incoming req see (Count)
system.loc_mem_ctrl.rdQLenPdf::51                   0                       # What read queue length does an incoming req see (Count)
system.loc_mem_ctrl.rdQLenPdf::52                   0                       # What read queue length does an incoming req see (Count)
system.loc_mem_ctrl.rdQLenPdf::53                   0                       # What read queue length does an incoming req see (Count)
system.loc_mem_ctrl.rdQLenPdf::54                   0                       # What read queue length does an incoming req see (Count)
system.loc_mem_ctrl.rdQLenPdf::55                   0                       # What read queue length does an incoming req see (Count)
system.loc_mem_ctrl.rdQLenPdf::56                   0                       # What read queue length does an incoming req see (Count)
system.loc_mem_ctrl.rdQLenPdf::57                   0                       # What read queue length does an incoming req see (Count)
system.loc_mem_ctrl.rdQLenPdf::58                   0                       # What read queue length does an incoming req see (Count)
system.loc_mem_ctrl.rdQLenPdf::59                   0                       # What read queue length does an incoming req see (Count)
system.loc_mem_ctrl.rdQLenPdf::60                   0                       # What read queue length does an incoming req see (Count)
system.loc_mem_ctrl.rdQLenPdf::61                   0                       # What read queue length does an incoming req see (Count)
system.loc_mem_ctrl.rdQLenPdf::62                   0                       # What read queue length does an incoming req see (Count)
system.loc_mem_ctrl.rdQLenPdf::63                   0                       # What read queue length does an incoming req see (Count)
system.loc_mem_ctrl.wrQLenPdf::0                    1                       # What write queue length does an incoming req see (Count)
system.loc_mem_ctrl.wrQLenPdf::1                    1                       # What write queue length does an incoming req see (Count)
system.loc_mem_ctrl.wrQLenPdf::2                    1                       # What write queue length does an incoming req see (Count)
system.loc_mem_ctrl.wrQLenPdf::3                    1                       # What write queue length does an incoming req see (Count)
system.loc_mem_ctrl.wrQLenPdf::4                    1                       # What write queue length does an incoming req see (Count)
system.loc_mem_ctrl.wrQLenPdf::5                    1                       # What write queue length does an incoming req see (Count)
system.loc_mem_ctrl.wrQLenPdf::6                    1                       # What write queue length does an incoming req see (Count)
system.loc_mem_ctrl.wrQLenPdf::7                    1                       # What write queue length does an incoming req see (Count)
system.loc_mem_ctrl.wrQLenPdf::8                    1                       # What write queue length does an incoming req see (Count)
system.loc_mem_ctrl.wrQLenPdf::9                    1                       # What write queue length does an incoming req see (Count)
system.loc_mem_ctrl.wrQLenPdf::10                   1                       # What write queue length does an incoming req see (Count)
system.loc_mem_ctrl.wrQLenPdf::11                   1                       # What write queue length does an incoming req see (Count)
system.loc_mem_ctrl.wrQLenPdf::12                   1                       # What write queue length does an incoming req see (Count)
system.loc_mem_ctrl.wrQLenPdf::13                   1                       # What write queue length does an incoming req see (Count)
system.loc_mem_ctrl.wrQLenPdf::14                   1                       # What write queue length does an incoming req see (Count)
system.loc_mem_ctrl.wrQLenPdf::15                   1                       # What write queue length does an incoming req see (Count)
system.loc_mem_ctrl.wrQLenPdf::16                   1                       # What write queue length does an incoming req see (Count)
system.loc_mem_ctrl.wrQLenPdf::17                   1                       # What write queue length does an incoming req see (Count)
system.loc_mem_ctrl.wrQLenPdf::18                   1                       # What write queue length does an incoming req see (Count)
system.loc_mem_ctrl.wrQLenPdf::19                   1                       # What write queue length does an incoming req see (Count)
system.loc_mem_ctrl.wrQLenPdf::20                   1                       # What write queue length does an incoming req see (Count)
system.loc_mem_ctrl.wrQLenPdf::21                   1                       # What write queue length does an incoming req see (Count)
system.loc_mem_ctrl.wrQLenPdf::22                   1                       # What write queue length does an incoming req see (Count)
system.loc_mem_ctrl.wrQLenPdf::23                   1                       # What write queue length does an incoming req see (Count)
system.loc_mem_ctrl.wrQLenPdf::24                   1                       # What write queue length does an incoming req see (Count)
system.loc_mem_ctrl.wrQLenPdf::25                   1                       # What write queue length does an incoming req see (Count)
system.loc_mem_ctrl.wrQLenPdf::26                   1                       # What write queue length does an incoming req see (Count)
system.loc_mem_ctrl.wrQLenPdf::27                   1                       # What write queue length does an incoming req see (Count)
system.loc_mem_ctrl.wrQLenPdf::28                   1                       # What write queue length does an incoming req see (Count)
system.loc_mem_ctrl.wrQLenPdf::29                   1                       # What write queue length does an incoming req see (Count)
system.loc_mem_ctrl.wrQLenPdf::30                   1                       # What write queue length does an incoming req see (Count)
system.loc_mem_ctrl.wrQLenPdf::31                   1                       # What write queue length does an incoming req see (Count)
system.loc_mem_ctrl.wrQLenPdf::32                   1                       # What write queue length does an incoming req see (Count)
system.loc_mem_ctrl.wrQLenPdf::33                   1                       # What write queue length does an incoming req see (Count)
system.loc_mem_ctrl.wrQLenPdf::34                   1                       # What write queue length does an incoming req see (Count)
system.loc_mem_ctrl.wrQLenPdf::35                   1                       # What write queue length does an incoming req see (Count)
system.loc_mem_ctrl.wrQLenPdf::36                   1                       # What write queue length does an incoming req see (Count)
system.loc_mem_ctrl.wrQLenPdf::37                   1                       # What write queue length does an incoming req see (Count)
system.loc_mem_ctrl.wrQLenPdf::38                   1                       # What write queue length does an incoming req see (Count)
system.loc_mem_ctrl.wrQLenPdf::39                   1                       # What write queue length does an incoming req see (Count)
system.loc_mem_ctrl.wrQLenPdf::40                   1                       # What write queue length does an incoming req see (Count)
system.loc_mem_ctrl.wrQLenPdf::41                   1                       # What write queue length does an incoming req see (Count)
system.loc_mem_ctrl.wrQLenPdf::42                   1                       # What write queue length does an incoming req see (Count)
system.loc_mem_ctrl.wrQLenPdf::43                   1                       # What write queue length does an incoming req see (Count)
system.loc_mem_ctrl.wrQLenPdf::44                   1                       # What write queue length does an incoming req see (Count)
system.loc_mem_ctrl.wrQLenPdf::45                   1                       # What write queue length does an incoming req see (Count)
system.loc_mem_ctrl.wrQLenPdf::46                   1                       # What write queue length does an incoming req see (Count)
system.loc_mem_ctrl.wrQLenPdf::47                   1                       # What write queue length does an incoming req see (Count)
system.loc_mem_ctrl.wrQLenPdf::48                   1                       # What write queue length does an incoming req see (Count)
system.loc_mem_ctrl.wrQLenPdf::49                   1                       # What write queue length does an incoming req see (Count)
system.loc_mem_ctrl.wrQLenPdf::50                   1                       # What write queue length does an incoming req see (Count)
system.loc_mem_ctrl.wrQLenPdf::51                   1                       # What write queue length does an incoming req see (Count)
system.loc_mem_ctrl.wrQLenPdf::52                   1                       # What write queue length does an incoming req see (Count)
system.loc_mem_ctrl.wrQLenPdf::53                   1                       # What write queue length does an incoming req see (Count)
system.loc_mem_ctrl.wrQLenPdf::54                   1                       # What write queue length does an incoming req see (Count)
system.loc_mem_ctrl.wrQLenPdf::55                   1                       # What write queue length does an incoming req see (Count)
system.loc_mem_ctrl.wrQLenPdf::56                   1                       # What write queue length does an incoming req see (Count)
system.loc_mem_ctrl.wrQLenPdf::57                   1                       # What write queue length does an incoming req see (Count)
system.loc_mem_ctrl.wrQLenPdf::58                   1                       # What write queue length does an incoming req see (Count)
system.loc_mem_ctrl.wrQLenPdf::59                   1                       # What write queue length does an incoming req see (Count)
system.loc_mem_ctrl.wrQLenPdf::60                   2                       # What write queue length does an incoming req see (Count)
system.loc_mem_ctrl.wrQLenPdf::61                   3                       # What write queue length does an incoming req see (Count)
system.loc_mem_ctrl.wrQLenPdf::62                   3                       # What write queue length does an incoming req see (Count)
system.loc_mem_ctrl.wrQLenPdf::63                   2                       # What write queue length does an incoming req see (Count)
system.loc_mem_ctrl.wrQLenPdf::64                   4                       # What write queue length does an incoming req see (Count)
system.loc_mem_ctrl.wrQLenPdf::65                   2                       # What write queue length does an incoming req see (Count)
system.loc_mem_ctrl.wrQLenPdf::66                   1                       # What write queue length does an incoming req see (Count)
system.loc_mem_ctrl.wrQLenPdf::67                   5                       # What write queue length does an incoming req see (Count)
system.loc_mem_ctrl.wrQLenPdf::68                   2                       # What write queue length does an incoming req see (Count)
system.loc_mem_ctrl.wrQLenPdf::69                   2                       # What write queue length does an incoming req see (Count)
system.loc_mem_ctrl.wrQLenPdf::70                   1                       # What write queue length does an incoming req see (Count)
system.loc_mem_ctrl.wrQLenPdf::71                   1                       # What write queue length does an incoming req see (Count)
system.loc_mem_ctrl.wrQLenPdf::72                   3                       # What write queue length does an incoming req see (Count)
system.loc_mem_ctrl.wrQLenPdf::73                   1                       # What write queue length does an incoming req see (Count)
system.loc_mem_ctrl.wrQLenPdf::74                   4                       # What write queue length does an incoming req see (Count)
system.loc_mem_ctrl.wrQLenPdf::75                   1                       # What write queue length does an incoming req see (Count)
system.loc_mem_ctrl.wrQLenPdf::76                   2                       # What write queue length does an incoming req see (Count)
system.loc_mem_ctrl.wrQLenPdf::77                   1                       # What write queue length does an incoming req see (Count)
system.loc_mem_ctrl.wrQLenPdf::78                   2                       # What write queue length does an incoming req see (Count)
system.loc_mem_ctrl.wrQLenPdf::79                   3                       # What write queue length does an incoming req see (Count)
system.loc_mem_ctrl.wrQLenPdf::80                   1                       # What write queue length does an incoming req see (Count)
system.loc_mem_ctrl.wrQLenPdf::81                   2                       # What write queue length does an incoming req see (Count)
system.loc_mem_ctrl.wrQLenPdf::82                   1                       # What write queue length does an incoming req see (Count)
system.loc_mem_ctrl.wrQLenPdf::83                   5                       # What write queue length does an incoming req see (Count)
system.loc_mem_ctrl.wrQLenPdf::84                   1                       # What write queue length does an incoming req see (Count)
system.loc_mem_ctrl.wrQLenPdf::85                   1                       # What write queue length does an incoming req see (Count)
system.loc_mem_ctrl.wrQLenPdf::86                   1                       # What write queue length does an incoming req see (Count)
system.loc_mem_ctrl.wrQLenPdf::87                   2                       # What write queue length does an incoming req see (Count)
system.loc_mem_ctrl.wrQLenPdf::88                   1                       # What write queue length does an incoming req see (Count)
system.loc_mem_ctrl.wrQLenPdf::89                   2                       # What write queue length does an incoming req see (Count)
system.loc_mem_ctrl.wrQLenPdf::90                   1                       # What write queue length does an incoming req see (Count)
system.loc_mem_ctrl.wrQLenPdf::91                   2                       # What write queue length does an incoming req see (Count)
system.loc_mem_ctrl.wrQLenPdf::92                   1                       # What write queue length does an incoming req see (Count)
system.loc_mem_ctrl.wrQLenPdf::93                   2                       # What write queue length does an incoming req see (Count)
system.loc_mem_ctrl.wrQLenPdf::94                   1                       # What write queue length does an incoming req see (Count)
system.loc_mem_ctrl.wrQLenPdf::95                   1                       # What write queue length does an incoming req see (Count)
system.loc_mem_ctrl.wrQLenPdf::96                   3                       # What write queue length does an incoming req see (Count)
system.loc_mem_ctrl.wrQLenPdf::97                   2                       # What write queue length does an incoming req see (Count)
system.loc_mem_ctrl.wrQLenPdf::98                   1                       # What write queue length does an incoming req see (Count)
system.loc_mem_ctrl.wrQLenPdf::99                   2                       # What write queue length does an incoming req see (Count)
system.loc_mem_ctrl.wrQLenPdf::100                  3                       # What write queue length does an incoming req see (Count)
system.loc_mem_ctrl.wrQLenPdf::101                  3                       # What write queue length does an incoming req see (Count)
system.loc_mem_ctrl.wrQLenPdf::102                  2                       # What write queue length does an incoming req see (Count)
system.loc_mem_ctrl.wrQLenPdf::103                  1                       # What write queue length does an incoming req see (Count)
system.loc_mem_ctrl.wrQLenPdf::104                  2                       # What write queue length does an incoming req see (Count)
system.loc_mem_ctrl.wrQLenPdf::105                  1                       # What write queue length does an incoming req see (Count)
system.loc_mem_ctrl.wrQLenPdf::106                  2                       # What write queue length does an incoming req see (Count)
system.loc_mem_ctrl.wrQLenPdf::107                  1                       # What write queue length does an incoming req see (Count)
system.loc_mem_ctrl.wrQLenPdf::108                  2                       # What write queue length does an incoming req see (Count)
system.loc_mem_ctrl.wrQLenPdf::109                  1                       # What write queue length does an incoming req see (Count)
system.loc_mem_ctrl.wrQLenPdf::110                  3                       # What write queue length does an incoming req see (Count)
system.loc_mem_ctrl.wrQLenPdf::111                  2                       # What write queue length does an incoming req see (Count)
system.loc_mem_ctrl.wrQLenPdf::112                  1                       # What write queue length does an incoming req see (Count)
system.loc_mem_ctrl.wrQLenPdf::113                  2                       # What write queue length does an incoming req see (Count)
system.loc_mem_ctrl.wrQLenPdf::114                  2                       # What write queue length does an incoming req see (Count)
system.loc_mem_ctrl.wrQLenPdf::115                  2                       # What write queue length does an incoming req see (Count)
system.loc_mem_ctrl.wrQLenPdf::116                  1                       # What write queue length does an incoming req see (Count)
system.loc_mem_ctrl.wrQLenPdf::117                  2                       # What write queue length does an incoming req see (Count)
system.loc_mem_ctrl.wrQLenPdf::118                  2                       # What write queue length does an incoming req see (Count)
[...]
system.loc_mem_ctrl.dram.perBankWrBursts::24        86361                       # Per bank write bursts (Count)
system.loc_mem_ctrl.dram.perBankWrBursts::25        86208                       # Per bank write bursts (Count)
system.loc_mem_ctrl.dram.perBankWrBursts::26        85732                       # Per bank write bursts (Count)
system.loc_mem_ctrl.dram.perBankWrBursts::27        86251                       # Per bank write bursts (Count)
system.loc_mem_ctrl.dram.perBankWrBursts::28        86191                       # Per bank write bursts (Count)
system.loc_mem_ctrl.dram.perBankWrBursts::29        86275                       # Per bank write bursts (Count)
system.loc_mem_ctrl.dram.perBankWrBursts::30        86104                       # Per bank write bursts (Count)
system.loc_mem_ctrl.dram.perBankWrBursts::31        86659                       # Per bank write bursts (Count)
system.loc_mem_ctrl.dram.totQLat                    0                       # Total ticks spent queuing (Tick)
system.loc_mem_ctrl.dram.totBusLat                  0                       # Total ticks spent in databus transfers (Tick)
system.loc_mem_ctrl.dram.totMemAccLat               0                       # Total ticks spent from burst creation until serviced by the DRAM (Tick)
system.loc_mem_ctrl.dram.avgQLat                  nan                       # Average queueing delay per DRAM burst ((Tick/Count))
system.loc_mem_ctrl.dram.avgBusLat                nan                       # Average bus latency per DRAM burst ((Tick/Count))
system.loc_mem_ctrl.dram.avgMemAccLat             nan                       # Average memory access latency per DRAM burst ((Tick/Count))
system.loc_mem_ctrl.dram.readRowHits                0                       # Number of row buffer hits during reads (Count)
system.loc_mem_ctrl.dram.writeRowHits             973                       # Number of row buffer hits during writes (Count)
system.loc_mem_ctrl.dram.readRowHitRate           nan                       # Row buffer hit rate for reads (Ratio)
system.loc_mem_ctrl.dram.writeRowHitRate         0.04                       # Row buffer hit rate for writes (Ratio)
system.loc_mem_ctrl.dram.bytesPerActivate::samples      2755946                       # Bytes accessed per row activation (Byte)
system.loc_mem_ctrl.dram.bytesPerActivate::mean    64.022596                       # Bytes accessed per row activation (Byte)
system.loc_mem_ctrl.dram.bytesPerActivate::gmean    64.015664                       # Bytes accessed per row activation (Byte)
system.loc_mem_ctrl.dram.bytesPerActivate::stdev     1.202332                       # Bytes accessed per row activation (Byte)
system.loc_mem_ctrl.dram.bytesPerActivate::64-79      2754973     99.96%     99.96% # Bytes accessed per row activation (Byte)
system.loc_mem_ctrl.dram.bytesPerActivate::128-143          973      0.04%    100.00% # Bytes accessed per row activation (Byte)
system.loc_mem_ctrl.dram.bytesPerActivate::total      2755946                       # Bytes accessed per row activation (Byte)
system.loc_mem_ctrl.dram.bytesRead                  0                       # Total bytes read (Byte)
system.loc_mem_ctrl.dram.bytesWritten       176443264                       # Total bytes written (Byte)
system.loc_mem_ctrl.dram.avgRdBW                    0                       # Average DRAM read bandwidth in MiBytes/s ((Byte/Second))
system.loc_mem_ctrl.dram.avgWrBW         17644.321855                       # Average DRAM write bandwidth in MiBytes/s ((Byte/Second))
system.loc_mem_ctrl.dram.peakBW              19207.00                       # Theoretical peak bandwidth in MiByte/s ((Byte/Second))
system.loc_mem_ctrl.dram.busUtil                91.86                       # Data bus utilization in percentage (Ratio)
system.loc_mem_ctrl.dram.busUtilRead             0.00                       # Data bus utilization in percentage for reads (Ratio)
system.loc_mem_ctrl.dram.busUtilWrite           91.86                       # Data bus utilization in percentage for writes (Ratio)
system.loc_mem_ctrl.dram.pageHitRate             0.04                       # Row buffer hit rate, read and write combined (Ratio)
system.loc_mem_ctrl.dram.power_state.pwrStateResidencyTicks::UNDEFINED  10000002576                       # Cumulative time (in ticks) in various power states (Tick)
system.loc_mem_ctrl.dram.rank0.actEnergy 4294125422.495996                       # Energy for activate commands per rank (pJ) (Joule)
system.loc_mem_ctrl.dram.rank0.preEnergy 5708922501.206413                       # Energy for precharge commands per rank (pJ) (Joule)
system.loc_mem_ctrl.dram.rank0.readEnergy            0                       # Energy for read commands per rank (pJ) (Joule)
system.loc_mem_ctrl.dram.rank0.writeEnergy 5176832118.528003                       # Energy for write commands per rank (pJ) (Joule)
system.loc_mem_ctrl.dram.rank0.refreshEnergy 1778824873.324749                       # Energy for refresh commands per rank (pJ) (Joule)
system.loc_mem_ctrl.dram.rank0.actBackEnergy 8452774837.080000                       # Energy for active background per rank (pJ) (Joule)
system.loc_mem_ctrl.dram.rank0.preBackEnergy 33214772.774400                       # Energy for precharge background per rank (pJ) (Joule)
system.loc_mem_ctrl.dram.rank0.actPowerDownEnergy            0                       # Energy for active power-down per rank (pJ) (Joule)
system.loc_mem_ctrl.dram.rank0.prePowerDownEnergy            0                       # Energy for precharge power-down per rank (pJ) (Joule)
system.loc_mem_ctrl.dram.rank0.selfRefreshEnergy            0                       # Energy for self refresh per rank (pJ) (Joule)
system.loc_mem_ctrl.dram.rank0.totalEnergy 25444694525.409603                       # Total energy per rank (pJ) (Joule)
system.loc_mem_ctrl.dram.rank0.averagePower  2544.468797                       # Core power per rank (mW) (Watt)
system.loc_mem_ctrl.dram.rank0.totalIdleTime            0                       # Total Idle time Per DRAM Rank (Tick)
system.loc_mem_ctrl.dram.rank0.pwrStateTime::IDLE     15406712                       # Time in different power states (Tick)
system.loc_mem_ctrl.dram.rank0.pwrStateTime::REF    449400000                       # Time in different power states (Tick)
system.loc_mem_ctrl.dram.rank0.pwrStateTime::SREF            0                       # Time in different power states (Tick)
system.loc_mem_ctrl.dram.rank0.pwrStateTime::PRE_PDN            0                       # Time in different power states (Tick)
system.loc_mem_ctrl.dram.rank0.pwrStateTime::ACT   9535195864                       # Time in different power states (Tick)
system.loc_mem_ctrl.dram.rank0.pwrStateTime::ACT_PDN            0                       # Time in different power states (Tick)
system.loc_mem_ctrl.dram.rank1.actEnergy 4301005389.407997                       # Energy for activate commands per rank (pJ) (Joule)
system.loc_mem_ctrl.dram.rank1.preEnergy 5718106646.078408                       # Energy for precharge commands per rank (pJ) (Joule)
system.loc_mem_ctrl.dram.rank1.readEnergy            0                       # Energy for read commands per rank (pJ) (Joule)
system.loc_mem_ctrl.dram.rank1.writeEnergy 5185029398.303995                       # Energy for write commands per rank (pJ) (Joule)
system.loc_mem_ctrl.dram.rank1.refreshEnergy 1778824873.324749                       # Energy for refresh commands per rank (pJ) (Joule)
system.loc_mem_ctrl.dram.rank1.actBackEnergy 8452764221.328004                       # Energy for active background per rank (pJ) (Joule)
system.loc_mem_ctrl.dram.rank1.preBackEnergy 33222929.510400                       # Energy for precharge background per rank (pJ) (Joule)
system.loc_mem_ctrl.dram.rank1.actPowerDownEnergy            0                       # Energy for active power-down per rank (pJ) (Joule)
system.loc_mem_ctrl.dram.rank1.prePowerDownEnergy            0                       # Energy for precharge power-down per rank (pJ) (Joule)
system.loc_mem_ctrl.dram.rank1.selfRefreshEnergy            0                       # Energy for self refresh per rank (pJ) (Joule)
system.loc_mem_ctrl.dram.rank1.totalEnergy 25468953457.953598                       # Total energy per rank (pJ) (Joule)
system.loc_mem_ctrl.dram.rank1.averagePower  2546.894690                       # Core power per rank (mW) (Watt)
system.loc_mem_ctrl.dram.rank1.totalIdleTime            0                       # Total Idle time Per DRAM Rank (Tick)
system.loc_mem_ctrl.dram.rank1.pwrStateTime::IDLE     15420064                       # Time in different power states (Tick)
system.loc_mem_ctrl.dram.rank1.pwrStateTime::REF    449400000                       # Time in different power states (Tick)
system.loc_mem_ctrl.dram.rank1.pwrStateTime::SREF            0                       # Time in different power states (Tick)
system.loc_mem_ctrl.dram.rank1.pwrStateTime::PRE_PDN            0                       # Time in different power states (Tick)
system.loc_mem_ctrl.dram.rank1.pwrStateTime::ACT   9535182512                       # Time in different power states (Tick)
system.loc_mem_ctrl.dram.rank1.pwrStateTime::ACT_PDN            0                       # Time in different power states (Tick)
system.loc_mem_ctrl.power_state.pwrStateResidencyTicks::UNDEFINED  10000002576                       # Cumulative time (in ticks) in various power states (Tick)
system.mem_ctrl.bytesRead::generator        117023424                       # Number of bytes read from this memory (Byte)
system.mem_ctrl.bytesRead::total            117023424                       # Number of bytes read from this memory (Byte)
system.mem_ctrl.bytesWritten::generator      59443456                       # Number of bytes written to this memory (Byte)
system.mem_ctrl.bytesWritten::total          59443456                       # Number of bytes written to this memory (Byte)
system.mem_ctrl.numReads::generator           1828491                       # Number of read requests responded to by this memory (Count)
system.mem_ctrl.numReads::total               1828491                       # Number of read requests responded to by this memory (Count)
system.mem_ctrl.numWrites::generator           928804                       # Number of write requests responded to by this memory (Count)
system.mem_ctrl.numWrites::total               928804                       # Number of write requests responded to by this memory (Count)
system.mem_ctrl.bwRead::generator         11702339385                       # Total read bandwidth from this memory ((Byte/Second))
system.mem_ctrl.bwRead::total             11702339385                       # Total read bandwidth from this memory ((Byte/Second))
system.mem_ctrl.bwWrite::generator         5944344069                       # Write bandwidth from this memory ((Byte/Second))
system.mem_ctrl.bwWrite::total             5944344069                       # Write bandwidth from this memory ((Byte/Second))
system.mem_ctrl.bwTotal::generator        17646683454                       # Total bandwidth to/from this memory ((Byte/Second))
system.mem_ctrl.bwTotal::total            17646683454                       # Total bandwidth to/from this memory ((Byte/Second))
system.mem_ctrl.readReqs                      1828506                       # Number of read requests accepted (Count)
system.mem_ctrl.writeReqs                      928804                       # Number of write requests accepted (Count)
system.mem_ctrl.servicedByWrQ                       5                       # Number of controller read bursts serviced by the write queue (Count)
system.mem_ctrl.mergedWrBursts                      1                       # Number of controller write bursts merged with an existing one (Count)
system.mem_ctrl.numRdRetry                    1827754                       # Number of times read queue was full causing retry (Count)
system.mem_ctrl.numWrRetry                     928411                       # Number of times write queue was full causing retry (Count)
system.mem_ctrl.readPktSize::0                      0                       # Read request sizes (log2) (Count)
system.mem_ctrl.readPktSize::1                      0                       # Read request sizes (log2) (Count)
system.mem_ctrl.readPktSize::2                      0                       # Read request sizes (log2) (Count)
system.mem_ctrl.readPktSize::3                      0                       # Read request sizes (log2) (Count)
system.mem_ctrl.readPktSize::4                      0                       # Read request sizes (log2) (Count)
system.mem_ctrl.readPktSize::5                      0                       # Read request sizes (log2) (Count)
system.mem_ctrl.readPktSize::6                1828506                       # Read request sizes (log2) (Count)
system.mem_ctrl.writePktSize::0                     0                       # Write request sizes (log2) (Count)
system.mem_ctrl.writePktSize::1                     0                       # Write request sizes (log2) (Count)
system.mem_ctrl.writePktSize::2                     0                       # Write request sizes (log2) (Count)
system.mem_ctrl.writePktSize::3                     0                       # Write request sizes (log2) (Count)
system.mem_ctrl.writePktSize::4                     0                       # Write request sizes (log2) (Count)
system.mem_ctrl.writePktSize::5                     0                       # Write request sizes (log2) (Count)
system.mem_ctrl.writePktSize::6                928804                       # Write request sizes (log2) (Count)
system.mem_ctrl.bytesReadWrQ                      320                       # Total number of bytes read from write queue (Byte)
system.mem_ctrl.bytesReadSys                117024384                       # Total read bytes from the system interface side (Byte)
system.mem_ctrl.bytesWrittenSys              59443456                       # Total written bytes from the system interface side (Byte)
system.mem_ctrl.avgRdBWSys               11702435385.45264435                       # Average system read bandwidth in Byte/s ((Byte/Second))
system.mem_ctrl.avgWrBWSys               5944344068.73696804                       # Average system write bandwidth in Byte/s ((Byte/Second))
system.mem_ctrl.totGap                   18375811725628231680                       # Total gap between requests (Tick)
system.mem_ctrl.avgGap                   6664398172722.05                       # Average gap between requests ((Tick/Count))
system.mem_ctrl.avgORBLen                    255.9932                       # Average ORB length ((Count/Tick))
system.mem_ctrl.avgLocRdQLenStrt                 0.00                       # Average local read queue length ((Count/Tick))
system.mem_ctrl.avgLocWrQLenStrt               235.92                       # Average local write queue length ((Count/Tick))
system.mem_ctrl.avgFarRdQLenStrt                 0.01                       # Average far read queue length ((Count/Tick))
system.mem_ctrl.avgFarWrQLenStrt                 0.00                       # Average far write queue length ((Count/Tick))
system.mem_ctrl.avgLocRdQLenEnq                  0.00                       # Average local read queue length when enqueuing ((Count/Tick))
system.mem_ctrl.avgLocWrQLenEnq                237.64                       # Average local write queue length when enqueuing ((Count/Tick))
system.mem_ctrl.avgFarRdQLenEnq                  1.01                       # Average far read queue length when enqueuing ((Count/Tick))
system.mem_ctrl.avgFarWrQLenEnq                  0.00                       # Average far write queue length when enqueuing ((Count/Tick))
system.mem_ctrl.numWrBacks                          0                       # Total number of write backs from DRAM cache to main memory (Unspecified)
system.mem_ctrl.totNumConf                        652                       # Total number of packets conflicted on DRAM cache (Unspecified)
system.mem_ctrl.totNumORBFull                 2756165                       # Total number of packets ORB full (Unspecified)
system.mem_ctrl.totNumCRBFull                       0                       # Total number of packets conflicted yet couldn't enter confBuffer (Unspecified)
system.mem_ctrl.maxNumConf                          2                       # Maximum number of packets conflicted on DRAM cache (Unspecified)
system.mem_ctrl.sentLocRdPort                       0                       # stat (Unspecified)
system.mem_ctrl.sentLocWrPort                 2757057                       # stat (Unspecified)
system.mem_ctrl.failedLocRdPort                     0                       # stat (Unspecified)
system.mem_ctrl.failedLocWrPort               4258685                       # stat (Unspecified)
system.mem_ctrl.recvdRdPort                         0                       # stat (Unspecified)
system.mem_ctrl.sentFarRdPort                 1828506                       # stat (Unspecified)
system.mem_ctrl.sentFarWrPort                       0                       # stat (Unspecified)
system.mem_ctrl.failedFarRdPort                   733                       # stat (Unspecified)
system.mem_ctrl.failedFarWrPort                     0                       # stat (Unspecified)
system.mem_ctrl.totPktsServiceTime         2558609642                       # stat (Unspecified)
system.mem_ctrl.totPktsORBTime           13784795836416                       # stat (Unspecified)
system.mem_ctrl.totTimeFarRdtoSend             104429                       # stat (Unspecified)
system.mem_ctrl.totTimeFarRdtoRecv          161540814                       # stat (Unspecified)
system.mem_ctrl.totTimeFarWrtoSend                  0                       # stat (Unspecified)
system.mem_ctrl.totTimeInLocRead                    0                       # stat (Unspecified)
system.mem_ctrl.totTimeInLocWrite          2395955764                       # stat (Unspecified)
system.mem_ctrl.totTimeInFarRead            161645522                       # stat (Unspecified)
system.mem_ctrl.numTotHits                          0                       # stat (Unspecified)
system.mem_ctrl.numTotMisses                  2757310                       # stat (Unspecified)
system.mem_ctrl.numColdMisses                  973188                       # stat (Unspecified)
system.mem_ctrl.numHotMisses                  1784122                       # stat (Unspecified)
system.mem_ctrl.numRdMissClean                1429682                       # stat (Unspecified)
system.mem_ctrl.numRdMissDirty                 398824                       # stat (Unspecified)
system.mem_ctrl.numRdHit                            0                       # stat (Unspecified)
system.mem_ctrl.numWrMissClean                 726304                       # stat (Unspecified)
system.mem_ctrl.numWrMissDirty                 202500                       # stat (Unspecified)
system.mem_ctrl.numWrHit                            0                       # stat (Unspecified)
system.mem_ctrl.numRdHitDirty                       0                       # stat (Unspecified)
system.mem_ctrl.numRdHitClean                       0                       # stat (Unspecified)
system.mem_ctrl.numWrHitDirty                       0                       # stat (Unspecified)
system.mem_ctrl.numWrHitClean                       0                       # stat (Unspecified)
system.mem_ctrl.power_state.pwrStateResidencyTicks::UNDEFINED  10000002576                       # Cumulative time (in ticks) in various power states (Tick)
system.workload.inst.arm                            0                       # number of arm instructions executed (Count)
system.workload.inst.quiesce                        0                       # number of quiesce instructions executed (Count)

---------- End Simulation Statistics   ----------
