
---------- Begin Simulation Statistics ----------
simSeconds                                          5                       # Number of seconds simulated (Second)
simTicks                                 5000000000000                       # Number of ticks simulated (Tick)
finalTick                                25963887240500                       # Number of ticks from beginning of simulation (restored from checkpoints and never reset) (Tick)
simFreq                                  1000000000000                       # The number of ticks per simulated second ((Tick/Second))
hostSeconds                                  14789.97                       # Real time elapsed on the host (Second)
hostTickRate                                338066833                       # The number of ticks simulated per host second (ticks/s) ((Tick/Second))
hostMemory                                   15933852                       # Number of bytes of host memory used (Byte)
simInsts                                  51062025741                       # Number of instructions simulated (Count)
simOps                                    52700956857                       # Number of ops (including micro ops) simulated (Count)
hostInstRate                                  3452475                       # Simulator instruction rate (inst/s) ((Count/Second))
hostOpRate                                    3563289                       # Simulator op (including micro ops) rate (op/s) ((Count/Second))
system.atomicCpu0.numCycles                         0                       # Number of cpu cycles simulated (Cycle)
system.atomicCpu0.numWorkItemsStarted               0                       # Number of work items this cpu started (Count)
system.atomicCpu0.numWorkItemsCompleted             0                       # Number of work items this cpu completed (Count)
system.atomicCpu0.exec_context.thread_0.numInsts            0                       # Number of instructions committed (Count)
system.atomicCpu0.exec_context.thread_0.numOps            0                       # Number of ops (including micro ops) committed (Count)
system.atomicCpu0.exec_context.thread_0.numIntAluAccesses            0                       # Number of integer alu accesses (Count)
system.atomicCpu0.exec_context.thread_0.numFpAluAccesses            0                       # Number of float alu accesses (Count)
system.atomicCpu0.exec_context.thread_0.numVecAluAccesses            0                       # Number of vector alu accesses (Count)
system.atomicCpu0.exec_context.thread_0.numCallsReturns            0                       # Number of times a function call or return occured (Count)
system.atomicCpu0.exec_context.thread_0.numCondCtrlInsts            0                       # Number of instructions that are conditional controls (Count)
system.atomicCpu0.exec_context.thread_0.numIntInsts            0                       # Number of integer instructions (Count)
system.atomicCpu0.exec_context.thread_0.numFpInsts            0                       # Number of float instructions (Count)
system.atomicCpu0.exec_context.thread_0.numVecInsts            0                       # Number of vector instructions (Count)
system.atomicCpu0.exec_context.thread_0.numIntRegReads            0                       # Number of times the integer registers were read (Count)
system.atomicCpu0.exec_context.thread_0.numIntRegWrites            0                       # Number of times the integer registers were written (Count)
system.atomicCpu0.exec_context.thread_0.numFpRegReads            0                       # Number of times the floating registers were read (Count)
system.atomicCpu0.exec_context.thread_0.numFpRegWrites            0                       # Number of times the floating registers were written (Count)
system.atomicCpu0.exec_context.thread_0.numVecRegReads            0                       # Number of times the vector registers were read (Count)
system.atomicCpu0.exec_context.thread_0.numVecRegWrites            0                       # Number of times the vector registers were written (Count)
system.atomicCpu0.exec_context.thread_0.numVecPredRegReads            0                       # Number of times the predicate registers were read (Count)
system.atomicCpu0.exec_context.thread_0.numVecPredRegWrites            0                       # Number of times the predicate registers were written (Count)
system.atomicCpu0.exec_context.thread_0.numMiscRegReads            0                       # Number of times the Misc registers were read (Count)
system.atomicCpu0.exec_context.thread_0.numMiscRegWrites            0                       # Number of times the Misc registers were written (Count)
system.atomicCpu0.exec_context.thread_0.numMemRefs            0                       # Number of memory refs (Count)
system.atomicCpu0.exec_context.thread_0.numLoadInsts            0                       # Number of load instructions (Count)
system.atomicCpu0.exec_context.thread_0.numStoreInsts            0                       # Number of store instructions (Count)
system.atomicCpu0.exec_context.thread_0.numIdleCycles            0                       # Number of idle cycles (Cycle)
system.atomicCpu0.exec_context.thread_0.numBusyCycles            0                       # Number of busy cycles (Cycle)
system.atomicCpu0.exec_context.thread_0.notIdleFraction            0                       # Percentage of non-idle cycles (Ratio)
system.atomicCpu0.exec_context.thread_0.idleFraction            1                       # Percentage of idle cycles (Ratio)
system.atomicCpu0.exec_context.thread_0.statExecutedInstType::No_OpClass            0                       # Class of executed instruction. (Count)
system.atomicCpu0.exec_context.thread_0.statExecutedInstType::IntAlu            0                       # Class of executed instruction. (Count)
system.atomicCpu0.exec_context.thread_0.statExecutedInstType::IntMult            0                       # Class of executed instruction. (Count)
system.atomicCpu0.exec_context.thread_0.statExecutedInstType::IntDiv            0                       # Class of executed instruction. (Count)
system.atomicCpu0.exec_context.thread_0.statExecutedInstType::FloatAdd            0                       # Class of executed instruction. (Count)
system.atomicCpu0.exec_context.thread_0.statExecutedInstType::FloatCmp            0                       # Class of executed instruction. (Count)
system.atomicCpu0.exec_context.thread_0.statExecutedInstType::FloatCvt            0                       # Class of executed instruction. (Count)
system.atomicCpu0.exec_context.thread_0.statExecutedInstType::FloatMult            0                       # Class of executed instruction. (Count)
system.atomicCpu0.exec_context.thread_0.statExecutedInstType::FloatMultAcc            0                       # Class of executed instruction. (Count)
system.atomicCpu0.exec_context.thread_0.statExecutedInstType::FloatDiv            0                       # Class of executed instruction. (Count)
system.atomicCpu0.exec_context.thread_0.statExecutedInstType::FloatMisc            0                       # Class of executed instruction. (Count)
system.atomicCpu0.exec_context.thread_0.statExecutedInstType::FloatSqrt            0                       # Class of executed instruction. (Count)
system.atomicCpu0.exec_context.thread_0.statExecutedInstType::SimdAdd            0                       # Class of executed instruction. (Count)
system.atomicCpu0.exec_context.thread_0.statExecutedInstType::SimdAddAcc            0                       # Class of executed instruction. (Count)
system.atomicCpu0.exec_context.thread_0.statExecutedInstType::SimdAlu            0                       # Class of executed instruction. (Count)
system.atomicCpu0.exec_context.thread_0.statExecutedInstType::SimdCmp            0                       # Class of executed instruction. (Count)
system.atomicCpu0.exec_context.thread_0.statExecutedInstType::SimdCvt            0                       # Class of executed instruction. (Count)
system.atomicCpu0.exec_context.thread_0.statExecutedInstType::SimdMisc            0                       # Class of executed instruction. (Count)
system.atomicCpu0.exec_context.thread_0.statExecutedInstType::SimdMult            0                       # Class of executed instruction. (Count)
system.atomicCpu0.exec_context.thread_0.statExecutedInstType::SimdMultAcc            0                       # Class of executed instruction. (Count)
system.atomicCpu0.exec_context.thread_0.statExecutedInstType::SimdShift            0                       # Class of executed instruction. (Count)
system.atomicCpu0.exec_context.thread_0.statExecutedInstType::SimdShiftAcc            0                       # Class of executed instruction. (Count)
system.atomicCpu0.exec_context.thread_0.statExecutedInstType::SimdDiv            0                       # Class of executed instruction. (Count)
system.atomicCpu0.exec_context.thread_0.statExecutedInstType::SimdSqrt            0                       # Class of executed instruction. (Count)
system.atomicCpu0.exec_context.thread_0.statExecutedInstType::SimdFloatAdd            0                       # Class of executed instruction. (Count)
system.atomicCpu0.exec_context.thread_0.statExecutedInstType::SimdFloatAlu            0                       # Class of executed instruction. (Count)
system.atomicCpu0.exec_context.thread_0.statExecutedInstType::SimdFloatCmp            0                       # Class of executed instruction. (Count)
system.atomicCpu0.exec_context.thread_0.statExecutedInstType::SimdFloatCvt            0                       # Class of executed instruction. (Count)
system.atomicCpu0.exec_context.thread_0.statExecutedInstType::SimdFloatDiv            0                       # Class of executed instruction. (Count)
system.atomicCpu0.exec_context.thread_0.statExecutedInstType::SimdFloatMisc            0                       # Class of executed instruction. (Count)
system.atomicCpu0.exec_context.thread_0.statExecutedInstType::SimdFloatMult            0                       # Class of executed instruction. (Count)
system.atomicCpu0.exec_context.thread_0.statExecutedInstType::SimdFloatMultAcc            0                       # Class of executed instruction. (Count)
system.atomicCpu0.exec_context.thread_0.statExecutedInstType::SimdFloatSqrt            0                       # Class of executed instruction. (Count)
system.atomicCpu0.exec_context.thread_0.statExecutedInstType::SimdReduceAdd            0                       # Class of executed instruction. (Count)
system.atomicCpu0.exec_context.thread_0.statExecutedInstType::SimdReduceAlu            0                       # Class of executed instruction. (Count)
system.atomicCpu0.exec_context.thread_0.statExecutedInstType::SimdReduceCmp            0                       # Class of executed instruction. (Count)
system.atomicCpu0.exec_context.thread_0.statExecutedInstType::SimdFloatReduceAdd            0                       # Class of executed instruction. (Count)
system.atomicCpu0.exec_context.thread_0.statExecutedInstType::SimdFloatReduceCmp            0                       # Class of executed instruction. (Count)
system.atomicCpu0.exec_context.thread_0.statExecutedInstType::SimdAes            0                       # Class of executed instruction. (Count)
system.atomicCpu0.exec_context.thread_0.statExecutedInstType::SimdAesMix            0                       # Class of executed instruction. (Count)
system.atomicCpu0.exec_context.thread_0.statExecutedInstType::SimdSha1Hash            0                       # Class of executed instruction. (Count)
system.atomicCpu0.exec_context.thread_0.statExecutedInstType::SimdSha1Hash2            0                       # Class of executed instruction. (Count)
system.atomicCpu0.exec_context.thread_0.statExecutedInstType::SimdSha256Hash            0                       # Class of executed instruction. (Count)
system.atomicCpu0.exec_context.thread_0.statExecutedInstType::SimdSha256Hash2            0                       # Class of executed instruction. (Count)
system.atomicCpu0.exec_context.thread_0.statExecutedInstType::SimdShaSigma2            0                       # Class of executed instruction. (Count)
system.atomicCpu0.exec_context.thread_0.statExecutedInstType::SimdShaSigma3            0                       # Class of executed instruction. (Count)
system.atomicCpu0.exec_context.thread_0.statExecutedInstType::SimdPredAlu            0                       # Class of executed instruction. (Count)
system.atomicCpu0.exec_context.thread_0.statExecutedInstType::MemRead            0                       # Class of executed instruction. (Count)
system.atomicCpu0.exec_context.thread_0.statExecutedInstType::MemWrite            0                       # Class of executed instruction. (Count)
system.atomicCpu0.exec_context.thread_0.statExecutedInstType::FloatMemRead            0                       # Class of executed instruction. (Count)
system.atomicCpu0.exec_context.thread_0.statExecutedInstType::FloatMemWrite            0                       # Class of executed instruction. (Count)
system.atomicCpu0.exec_context.thread_0.statExecutedInstType::IprAccess            0                       # Class of executed instruction. (Count)
system.atomicCpu0.exec_context.thread_0.statExecutedInstType::InstPrefetch            0                       # Class of executed instruction. (Count)
system.atomicCpu0.exec_context.thread_0.statExecutedInstType::total            0                       # Class of executed instruction. (Count)
system.atomicCpu0.mmu.dtb.rdAccesses                0                       # TLB accesses on read requests (Count)
system.atomicCpu0.mmu.dtb.wrAccesses                0                       # TLB accesses on write requests (Count)
system.atomicCpu0.mmu.dtb.rdMisses                  0                       # TLB misses on read requests (Count)
system.atomicCpu0.mmu.dtb.wrMisses                  0                       # TLB misses on write requests (Count)
system.atomicCpu0.mmu.dtb.walker.power_state.pwrStateResidencyTicks::UNDEFINED 25963887240500                       # Cumulative time (in ticks) in various power states (Tick)
system.atomicCpu0.mmu.itb.rdAccesses                0                       # TLB accesses on read requests (Count)
system.atomicCpu0.mmu.itb.wrAccesses                0                       # TLB accesses on write requests (Count)
system.atomicCpu0.mmu.itb.rdMisses                  0                       # TLB misses on read requests (Count)
system.atomicCpu0.mmu.itb.wrMisses                  0                       # TLB misses on write requests (Count)
system.atomicCpu0.mmu.itb.walker.power_state.pwrStateResidencyTicks::UNDEFINED 25963887240500                       # Cumulative time (in ticks) in various power states (Tick)
system.atomicCpu0.power_state.pwrStateResidencyTicks::OFF 25963887240500                       # Cumulative time (in ticks) in various power states (Tick)
system.atomicCpu0.thread_0.numInsts                 0                       # Number of Instructions committed (Count)
system.atomicCpu0.thread_0.numOps                   0                       # Number of Ops committed (Count)
system.atomicCpu0.thread_0.numMemRefs               0                       # Number of Memory References (Count)
system.atomicCpu1.numCycles                         0                       # Number of cpu cycles simulated (Cycle)
system.atomicCpu1.numWorkItemsStarted               0                       # Number of work items this cpu started (Count)
system.atomicCpu1.numWorkItemsCompleted             0                       # Number of work items this cpu completed (Count)
system.atomicCpu1.exec_context.thread_0.numInsts            0                       # Number of instructions committed (Count)
system.atomicCpu1.exec_context.thread_0.numOps            0                       # Number of ops (including micro ops) committed (Count)
system.atomicCpu1.exec_context.thread_0.numIntAluAccesses            0                       # Number of integer alu accesses (Count)
system.atomicCpu1.exec_context.thread_0.numFpAluAccesses            0                       # Number of float alu accesses (Count)
system.atomicCpu1.exec_context.thread_0.numVecAluAccesses            0                       # Number of vector alu accesses (Count)
system.atomicCpu1.exec_context.thread_0.numCallsReturns            0                       # Number of times a function call or return occured (Count)
system.atomicCpu1.exec_context.thread_0.numCondCtrlInsts            0                       # Number of instructions that are conditional controls (Count)
system.atomicCpu1.exec_context.thread_0.numIntInsts            0                       # Number of integer instructions (Count)
system.atomicCpu1.exec_context.thread_0.numFpInsts            0                       # Number of float instructions (Count)
system.atomicCpu1.exec_context.thread_0.numVecInsts            0                       # Number of vector instructions (Count)
system.atomicCpu1.exec_context.thread_0.numIntRegReads            0                       # Number of times the integer registers were read (Count)
system.atomicCpu1.exec_context.thread_0.numIntRegWrites            0                       # Number of times the integer registers were written (Count)
system.atomicCpu1.exec_context.thread_0.numFpRegReads            0                       # Number of times the floating registers were read (Count)
system.atomicCpu1.exec_context.thread_0.numFpRegWrites            0                       # Number of times the floating registers were written (Count)
system.atomicCpu1.exec_context.thread_0.numVecRegReads            0                       # Number of times the vector registers were read (Count)
system.atomicCpu1.exec_context.thread_0.numVecRegWrites            0                       # Number of times the vector registers were written (Count)
system.atomicCpu1.exec_context.thread_0.numVecPredRegReads            0                       # Number of times the predicate registers were read (Count)
system.atomicCpu1.exec_context.thread_0.numVecPredRegWrites            0                       # Number of times the predicate registers were written (Count)
system.atomicCpu1.exec_context.thread_0.numMiscRegReads            0                       # Number of times the Misc registers were read (Count)
system.atomicCpu1.exec_context.thread_0.numMiscRegWrites            0                       # Number of times the Misc registers were written (Count)
system.atomicCpu1.exec_context.thread_0.numMemRefs            0                       # Number of memory refs (Count)
system.atomicCpu1.exec_context.thread_0.numLoadInsts            0                       # Number of load instructions (Count)
system.atomicCpu1.exec_context.thread_0.numStoreInsts            0                       # Number of store instructions (Count)
system.atomicCpu1.exec_context.thread_0.numIdleCycles            0                       # Number of idle cycles (Cycle)
system.atomicCpu1.exec_context.thread_0.numBusyCycles            0                       # Number of busy cycles (Cycle)
system.atomicCpu1.exec_context.thread_0.notIdleFraction            0                       # Percentage of non-idle cycles (Ratio)
system.atomicCpu1.exec_context.thread_0.idleFraction            1                       # Percentage of idle cycles (Ratio)
system.atomicCpu1.exec_context.thread_0.statExecutedInstType::No_OpClass            0                       # Class of executed instruction. (Count)
system.atomicCpu1.exec_context.thread_0.statExecutedInstType::IntAlu            0                       # Class of executed instruction. (Count)
system.atomicCpu1.exec_context.thread_0.statExecutedInstType::IntMult            0                       # Class of executed instruction. (Count)
system.atomicCpu1.exec_context.thread_0.statExecutedInstType::IntDiv            0                       # Class of executed instruction. (Count)
system.atomicCpu1.exec_context.thread_0.statExecutedInstType::FloatAdd            0                       # Class of executed instruction. (Count)
system.atomicCpu1.exec_context.thread_0.statExecutedInstType::FloatCmp            0                       # Class of executed instruction. (Count)
system.atomicCpu1.exec_context.thread_0.statExecutedInstType::FloatCvt            0                       # Class of executed instruction. (Count)
system.atomicCpu1.exec_context.thread_0.statExecutedInstType::FloatMult            0                       # Class of executed instruction. (Count)
system.atomicCpu1.exec_context.thread_0.statExecutedInstType::FloatMultAcc            0                       # Class of executed instruction. (Count)
system.atomicCpu1.exec_context.thread_0.statExecutedInstType::FloatDiv            0                       # Class of executed instruction. (Count)
system.atomicCpu1.exec_context.thread_0.statExecutedInstType::FloatMisc            0                       # Class of executed instruction. (Count)
system.atomicCpu1.exec_context.thread_0.statExecutedInstType::FloatSqrt            0                       # Class of executed instruction. (Count)
system.atomicCpu1.exec_context.thread_0.statExecutedInstType::SimdAdd            0                       # Class of executed instruction. (Count)
system.atomicCpu1.exec_context.thread_0.statExecutedInstType::SimdAddAcc            0                       # Class of executed instruction. (Count)
system.atomicCpu1.exec_context.thread_0.statExecutedInstType::SimdAlu            0                       # Class of executed instruction. (Count)
system.atomicCpu1.exec_context.thread_0.statExecutedInstType::SimdCmp            0                       # Class of executed instruction. (Count)
system.atomicCpu1.exec_context.thread_0.statExecutedInstType::SimdCvt            0                       # Class of executed instruction. (Count)
system.atomicCpu1.exec_context.thread_0.statExecutedInstType::SimdMisc            0                       # Class of executed instruction. (Count)
system.atomicCpu1.exec_context.thread_0.statExecutedInstType::SimdMult            0                       # Class of executed instruction. (Count)
system.atomicCpu1.exec_context.thread_0.statExecutedInstType::SimdMultAcc            0                       # Class of executed instruction. (Count)
system.atomicCpu1.exec_context.thread_0.statExecutedInstType::SimdShift            0                       # Class of executed instruction. (Count)
system.atomicCpu1.exec_context.thread_0.statExecutedInstType::SimdShiftAcc            0                       # Class of executed instruction. (Count)
system.atomicCpu1.exec_context.thread_0.statExecutedInstType::SimdDiv            0                       # Class of executed instruction. (Count)
system.atomicCpu1.exec_context.thread_0.statExecutedInstType::SimdSqrt            0                       # Class of executed instruction. (Count)
system.atomicCpu1.exec_context.thread_0.statExecutedInstType::SimdFloatAdd            0                       # Class of executed instruction. (Count)
system.atomicCpu1.exec_context.thread_0.statExecutedInstType::SimdFloatAlu            0                       # Class of executed instruction. (Count)
system.atomicCpu1.exec_context.thread_0.statExecutedInstType::SimdFloatCmp            0                       # Class of executed instruction. (Count)
system.atomicCpu1.exec_context.thread_0.statExecutedInstType::SimdFloatCvt            0                       # Class of executed instruction. (Count)
system.atomicCpu1.exec_context.thread_0.statExecutedInstType::SimdFloatDiv            0                       # Class of executed instruction. (Count)
system.atomicCpu1.exec_context.thread_0.statExecutedInstType::SimdFloatMisc            0                       # Class of executed instruction. (Count)
system.atomicCpu1.exec_context.thread_0.statExecutedInstType::SimdFloatMult            0                       # Class of executed instruction. (Count)
system.atomicCpu1.exec_context.thread_0.statExecutedInstType::SimdFloatMultAcc            0                       # Class of executed instruction. (Count)
system.atomicCpu1.exec_context.thread_0.statExecutedInstType::SimdFloatSqrt            0                       # Class of executed instruction. (Count)
system.atomicCpu1.exec_context.thread_0.statExecutedInstType::SimdReduceAdd            0                       # Class of executed instruction. (Count)
system.atomicCpu1.exec_context.thread_0.statExecutedInstType::SimdReduceAlu            0                       # Class of executed instruction. (Count)
system.atomicCpu1.exec_context.thread_0.statExecutedInstType::SimdReduceCmp            0                       # Class of executed instruction. (Count)
system.atomicCpu1.exec_context.thread_0.statExecutedInstType::SimdFloatReduceAdd            0                       # Class of executed instruction. (Count)
system.atomicCpu1.exec_context.thread_0.statExecutedInstType::SimdFloatReduceCmp            0                       # Class of executed instruction. (Count)
system.atomicCpu1.exec_context.thread_0.statExecutedInstType::SimdAes            0                       # Class of executed instruction. (Count)
system.atomicCpu1.exec_context.thread_0.statExecutedInstType::SimdAesMix            0                       # Class of executed instruction. (Count)
system.atomicCpu1.exec_context.thread_0.statExecutedInstType::SimdSha1Hash            0                       # Class of executed instruction. (Count)
system.atomicCpu1.exec_context.thread_0.statExecutedInstType::SimdSha1Hash2            0                       # Class of executed instruction. (Count)
system.atomicCpu1.exec_context.thread_0.statExecutedInstType::SimdSha256Hash            0                       # Class of executed instruction. (Count)
system.atomicCpu1.exec_context.thread_0.statExecutedInstType::SimdSha256Hash2            0                       # Class of executed instruction. (Count)
system.atomicCpu1.exec_context.thread_0.statExecutedInstType::SimdShaSigma2            0                       # Class of executed instruction. (Count)
system.atomicCpu1.exec_context.thread_0.statExecutedInstType::SimdShaSigma3            0                       # Class of executed instruction. (Count)
system.atomicCpu1.exec_context.thread_0.statExecutedInstType::SimdPredAlu            0                       # Class of executed instruction. (Count)
system.atomicCpu1.exec_context.thread_0.statExecutedInstType::MemRead            0                       # Class of executed instruction. (Count)
system.atomicCpu1.exec_context.thread_0.statExecutedInstType::MemWrite            0                       # Class of executed instruction. (Count)
system.atomicCpu1.exec_context.thread_0.statExecutedInstType::FloatMemRead            0                       # Class of executed instruction. (Count)
system.atomicCpu1.exec_context.thread_0.statExecutedInstType::FloatMemWrite            0                       # Class of executed instruction. (Count)
system.atomicCpu1.exec_context.thread_0.statExecutedInstType::IprAccess            0                       # Class of executed instruction. (Count)
system.atomicCpu1.exec_context.thread_0.statExecutedInstType::InstPrefetch            0                       # Class of executed instruction. (Count)
system.atomicCpu1.exec_context.thread_0.statExecutedInstType::total            0                       # Class of executed instruction. (Count)
system.atomicCpu1.mmu.dtb.rdAccesses                0                       # TLB accesses on read requests (Count)
system.atomicCpu1.mmu.dtb.wrAccesses                0                       # TLB accesses on write requests (Count)
system.atomicCpu1.mmu.dtb.rdMisses                  0                       # TLB misses on read requests (Count)
system.atomicCpu1.mmu.dtb.wrMisses                  0                       # TLB misses on write requests (Count)
system.atomicCpu1.mmu.dtb.walker.power_state.pwrStateResidencyTicks::UNDEFINED 25963887240500                       # Cumulative time (in ticks) in various power states (Tick)
system.atomicCpu1.mmu.itb.rdAccesses                0                       # TLB accesses on read requests (Count)
system.atomicCpu1.mmu.itb.wrAccesses                0                       # TLB accesses on write requests (Count)
system.atomicCpu1.mmu.itb.rdMisses                  0                       # TLB misses on read requests (Count)
system.atomicCpu1.mmu.itb.wrMisses                  0                       # TLB misses on write requests (Count)
system.atomicCpu1.mmu.itb.walker.power_state.pwrStateResidencyTicks::UNDEFINED 25963887240500                       # Cumulative time (in ticks) in various power states (Tick)
system.atomicCpu1.power_state.pwrStateResidencyTicks::OFF 25963887240500                       # Cumulative time (in ticks) in various power states (Tick)
system.atomicCpu1.thread_0.numInsts                 0                       # Number of Instructions committed (Count)
system.atomicCpu1.thread_0.numOps                   0                       # Number of Ops committed (Count)
system.atomicCpu1.thread_0.numMemRefs               0                       # Number of Memory References (Count)
system.caches.delayHistogram::bucket_size          128                       # delay histogram for all message (Unspecified)
system.caches.delayHistogram::max_bucket         1279                       # delay histogram for all message (Unspecified)
system.caches.delayHistogram::samples       453741385                       # delay histogram for all message (Unspecified)
system.caches.delayHistogram::mean           0.363806                       # delay histogram for all message (Unspecified)
system.caches.delayHistogram::stdev          1.672374                       # delay histogram for all message (Unspecified)
system.caches.delayHistogram             |   453741383    100.00%    100.00% |           0      0.00%    100.00% |           0      0.00%    100.00% |           0      0.00%    100.00% |           1      0.00%    100.00% |           0      0.00%    100.00% |           0      0.00%    100.00% |           1      0.00%    100.00% |           0      0.00%    100.00% |           0      0.00%    100.00% # delay histogram for all message (Unspecified)
system.caches.delayHistogram::total         453741385                       # delay histogram for all message (Unspecified)
system.caches.m_outstandReqHistSeqr::bucket_size            1                       (Unspecified)
system.caches.m_outstandReqHistSeqr::max_bucket            9                       (Unspecified)
system.caches.m_outstandReqHistSeqr::samples   5497999538                       (Unspecified)
system.caches.m_outstandReqHistSeqr::mean     1.000000                       (Unspecified)
system.caches.m_outstandReqHistSeqr::gmean     1.000000                       (Unspecified)
system.caches.m_outstandReqHistSeqr::stdev     0.000082                       (Unspecified)
system.caches.m_outstandReqHistSeqr      |           0      0.00%      0.00% |  5497999501    100.00%    100.00% |          37      0.00%    100.00% |           0      0.00%    100.00% |           0      0.00%    100.00% |           0      0.00%    100.00% |           0      0.00%    100.00% |           0      0.00%    100.00% |           0      0.00%    100.00% |           0      0.00%    100.00% (Unspecified)
system.caches.m_outstandReqHistSeqr::total   5497999538                       (Unspecified)
system.caches.m_latencyHistSeqr::bucket_size          512                       (Unspecified)
system.caches.m_latencyHistSeqr::max_bucket         5119                       (Unspecified)
system.caches.m_latencyHistSeqr::samples   5497999536                       (Unspecified)
system.caches.m_latencyHistSeqr::mean        6.268577                       (Unspecified)
system.caches.m_latencyHistSeqr::gmean       1.071811                       (Unspecified)
system.caches.m_latencyHistSeqr::stdev      56.367001                       (Unspecified)
system.caches.m_latencyHistSeqr          |  5473557524     99.56%     99.56% |    23215527      0.42%     99.98% |      218292      0.00%     99.98% |      931010      0.02%    100.00% |       76726      0.00%    100.00% |         456      0.00%    100.00% |           1      0.00%    100.00% |           0      0.00%    100.00% |           0      0.00%    100.00% |           0      0.00%    100.00% (Unspecified)
system.caches.m_latencyHistSeqr::total     5497999536                       (Unspecified)
system.caches.m_hitLatencyHistSeqr::bucket_size            1                       (Unspecified)
system.caches.m_hitLatencyHistSeqr::max_bucket            9                       (Unspecified)
system.caches.m_hitLatencyHistSeqr::samples   5429675009                       (Unspecified)
system.caches.m_hitLatencyHistSeqr::mean            1                       (Unspecified)
system.caches.m_hitLatencyHistSeqr::gmean            1                       (Unspecified)
system.caches.m_hitLatencyHistSeqr       |           0      0.00%      0.00% |  5429675009    100.00%    100.00% |           0      0.00%    100.00% |           0      0.00%    100.00% |           0      0.00%    100.00% |           0      0.00%    100.00% |           0      0.00%    100.00% |           0      0.00%    100.00% |           0      0.00%    100.00% |           0      0.00%    100.00% (Unspecified)
system.caches.m_hitLatencyHistSeqr::total   5429675009                       (Unspecified)
system.caches.m_missLatencyHistSeqr::bucket_size          512                       (Unspecified)
system.caches.m_missLatencyHistSeqr::max_bucket         5119                       (Unspecified)
system.caches.m_missLatencyHistSeqr::samples     68324527                       (Unspecified)
system.caches.m_missLatencyHistSeqr::mean   424.956589                       (Unspecified)
system.caches.m_missLatencyHistSeqr::gmean   265.204033                       (Unspecified)
system.caches.m_missLatencyHistSeqr::stdev   279.577129                       (Unspecified)
system.caches.m_missLatencyHistSeqr      |    43882515     64.23%     64.23% |    23215527     33.98%     98.20% |      218292      0.32%     98.52% |      931010      1.36%     99.89% |       76726      0.11%    100.00% |         456      0.00%    100.00% |           1      0.00%    100.00% |           0      0.00%    100.00% |           0      0.00%    100.00% |           0      0.00%    100.00% (Unspecified)
system.caches.m_missLatencyHistSeqr::total     68324527                       (Unspecified)
system.caches.delayVCHist.vnet_0::bucket_size          128                       # delay histogram for vnet_0 (Unspecified)
system.caches.delayVCHist.vnet_0::max_bucket         1279                       # delay histogram for vnet_0 (Unspecified)
system.caches.delayVCHist.vnet_0::samples    203508467                       # delay histogram for vnet_0 (Unspecified)
system.caches.delayVCHist.vnet_0::mean       0.810066                       # delay histogram for vnet_0 (Unspecified)
system.caches.delayVCHist.vnet_0::stdev      2.422624                       # delay histogram for vnet_0 (Unspecified)
system.caches.delayVCHist.vnet_0         |   203508465    100.00%    100.00% |           0      0.00%    100.00% |           0      0.00%    100.00% |           0      0.00%    100.00% |           1      0.00%    100.00% |           0      0.00%    100.00% |           0      0.00%    100.00% |           1      0.00%    100.00% |           0      0.00%    100.00% |           0      0.00%    100.00% # delay histogram for vnet_0 (Unspecified)
system.caches.delayVCHist.vnet_0::total     203508467                       # delay histogram for vnet_0 (Unspecified)
system.caches.delayVCHist.vnet_1::bucket_size            4                       # delay histogram for vnet_1 (Unspecified)
system.caches.delayVCHist.vnet_1::max_bucket           39                       # delay histogram for vnet_1 (Unspecified)
system.caches.delayVCHist.vnet_1::samples    249951970                       # delay histogram for vnet_1 (Unspecified)
system.caches.delayVCHist.vnet_1::mean       0.000874                       # delay histogram for vnet_1 (Unspecified)
system.caches.delayVCHist.vnet_1::stdev      0.067434                       # delay histogram for vnet_1 (Unspecified)
system.caches.delayVCHist.vnet_1         |   249917792     99.99%     99.99% |       29499      0.01%    100.00% |        4677      0.00%    100.00% |           1      0.00%    100.00% |           0      0.00%    100.00% |           1      0.00%    100.00% |           0      0.00%    100.00% |           0      0.00%    100.00% |           0      0.00%    100.00% |           0      0.00%    100.00% # delay histogram for vnet_1 (Unspecified)
system.caches.delayVCHist.vnet_1::total     249951970                       # delay histogram for vnet_1 (Unspecified)
system.caches.delayVCHist.vnet_2::bucket_size            1                       # delay histogram for vnet_2 (Unspecified)
system.caches.delayVCHist.vnet_2::max_bucket            9                       # delay histogram for vnet_2 (Unspecified)
system.caches.delayVCHist.vnet_2::samples       280948                       # delay histogram for vnet_2 (Unspecified)
system.caches.delayVCHist.vnet_2::mean       0.000242                       # delay histogram for vnet_2 (Unspecified)
system.caches.delayVCHist.vnet_2::stdev      0.022000                       # delay histogram for vnet_2 (Unspecified)
system.caches.delayVCHist.vnet_2         |      280914     99.99%     99.99% |           0      0.00%     99.99% |          34      0.01%    100.00% |           0      0.00%    100.00% |           0      0.00%    100.00% |           0      0.00%    100.00% |           0      0.00%    100.00% |           0      0.00%    100.00% |           0      0.00%    100.00% |           0      0.00%    100.00% # delay histogram for vnet_2 (Unspecified)
system.caches.delayVCHist.vnet_2::total        280948                       # delay histogram for vnet_2 (Unspecified)
system.caches.L1Cache_Controller.Load    |   505121595     49.99%     49.99% |   505315499     50.01%    100.00% (Unspecified)
system.caches.L1Cache_Controller.Load::total   1010437094                       (Unspecified)
system.caches.L1Cache_Controller.Ifetch  |  2116166127     49.96%     49.96% |  2119155407     50.04%    100.00% (Unspecified)
system.caches.L1Cache_Controller.Ifetch::total   4235321534                       (Unspecified)
system.caches.L1Cache_Controller.Store   |   126329075     50.08%     50.08% |   125911835     49.92%    100.00% (Unspecified)
system.caches.L1Cache_Controller.Store::total    252240910                       (Unspecified)
system.caches.L1Cache_Controller.Inv     |      110291     45.62%     45.62% |      131470     54.38%    100.00% (Unspecified)
system.caches.L1Cache_Controller.Inv::total       241761                       (Unspecified)
system.caches.L1Cache_Controller.L1_Replacement |    33988610     49.94%     49.94% |    34074278     50.06%    100.00% (Unspecified)
system.caches.L1Cache_Controller.L1_Replacement::total     68062888                       (Unspecified)
system.caches.L1Cache_Controller.Fwd_GETX |          83      5.56%      5.56% |        1409     94.44%    100.00% (Unspecified)
system.caches.L1Cache_Controller.Fwd_GETX::total         1492                       (Unspecified)
system.caches.L1Cache_Controller.Fwd_GETS |       35563     94.34%     94.34% |        2132      5.66%    100.00% (Unspecified)
system.caches.L1Cache_Controller.Fwd_GETS::total        37695                       (Unspecified)
system.caches.L1Cache_Controller.Data    |        6249     99.79%     99.79% |          13      0.21%    100.00% (Unspecified)
system.caches.L1Cache_Controller.Data::total         6262                       (Unspecified)
system.caches.L1Cache_Controller.Data_Exclusive |    30864233     49.90%     49.90% |    30987639     50.10%    100.00% (Unspecified)
system.caches.L1Cache_Controller.Data_Exclusive::total     61851872                       (Unspecified)
system.caches.L1Cache_Controller.DataS_fromL1 |        2132      5.66%      5.66% |       35563     94.34%    100.00% (Unspecified)
system.caches.L1Cache_Controller.DataS_fromL1::total        37695                       (Unspecified)
system.caches.L1Cache_Controller.Data_all_Acks |     3224818     50.39%     50.39% |     3174880     49.61%    100.00% (Unspecified)
system.caches.L1Cache_Controller.Data_all_Acks::total      6399698                       (Unspecified)
system.caches.L1Cache_Controller.Ack     |       28640     98.76%     98.76% |         360      1.24%    100.00% (Unspecified)
system.caches.L1Cache_Controller.Ack::total        29000                       (Unspecified)
system.caches.L1Cache_Controller.Ack_all |       34889     98.94%     98.94% |         373      1.06%    100.00% (Unspecified)
system.caches.L1Cache_Controller.Ack_all::total        35262                       (Unspecified)
system.caches.L1Cache_Controller.WB_Ack  |    33696284     49.90%     49.90% |    33835703     50.10%    100.00% (Unspecified)
system.caches.L1Cache_Controller.WB_Ack::total     67531987                       (Unspecified)
system.caches.L1Cache_Controller.NP.Load |    30956568     49.89%     49.89% |    31089460     50.11%    100.00% (Unspecified)
system.caches.L1Cache_Controller.NP.Load::total     62046028                       (Unspecified)
system.caches.L1Cache_Controller.NP.Ifetch |      183153     59.50%     59.50% |      124671     40.50%    100.00% (Unspecified)
system.caches.L1Cache_Controller.NP.Ifetch::total       307824                       (Unspecified)
system.caches.L1Cache_Controller.NP.Store |     2857592     49.90%     49.90% |     2868851     50.10%    100.00% (Unspecified)
system.caches.L1Cache_Controller.NP.Store::total      5726443                       (Unspecified)
system.caches.L1Cache_Controller.NP.Inv  |        3759     28.00%     28.00% |        9664     72.00%    100.00% (Unspecified)
system.caches.L1Cache_Controller.NP.Inv::total        13423                       (Unspecified)
system.caches.L1Cache_Controller.I.Load  |        9587     19.85%     19.85% |       38699     80.15%    100.00% (Unspecified)
system.caches.L1Cache_Controller.I.Load::total        48286                       (Unspecified)
system.caches.L1Cache_Controller.I.Ifetch |       87056     54.41%     54.41% |       72951     45.59%    100.00% (Unspecified)
system.caches.L1Cache_Controller.I.Ifetch::total       160007                       (Unspecified)
system.caches.L1Cache_Controller.I.Store |        3477     50.10%     50.10% |        3463     49.90%    100.00% (Unspecified)
system.caches.L1Cache_Controller.I.Store::total         6940                       (Unspecified)
system.caches.L1Cache_Controller.I.L1_Replacement |        6170     44.34%     44.34% |        7744     55.66%    100.00% (Unspecified)
system.caches.L1Cache_Controller.I.L1_Replacement::total        13914                       (Unspecified)
system.caches.L1Cache_Controller.S.Load  |     1003487     44.70%     44.70% |     1241377     55.30%    100.00% (Unspecified)
system.caches.L1Cache_Controller.S.Load::total      2244864                       (Unspecified)
system.caches.L1Cache_Controller.S.Ifetch |  2115895918     49.96%     49.96% |  2118957785     50.04%    100.00% (Unspecified)
system.caches.L1Cache_Controller.S.Ifetch::total   4234853703                       (Unspecified)
system.caches.L1Cache_Controller.S.Store |       28640     98.76%     98.76% |         361      1.24%    100.00% (Unspecified)
system.caches.L1Cache_Controller.S.Store::total        29001                       (Unspecified)
system.caches.L1Cache_Controller.S.Inv   |       92653     45.98%     45.98% |      108857     54.02%    100.00% (Unspecified)
system.caches.L1Cache_Controller.S.Inv::total       201510                       (Unspecified)
system.caches.L1Cache_Controller.S.L1_Replacement |      286156     55.35%     55.35% |      230831     44.65%    100.00% (Unspecified)
system.caches.L1Cache_Controller.S.L1_Replacement::total       516987                       (Unspecified)
system.caches.L1Cache_Controller.E.Load  |   331707393     49.51%     49.51% |   338205812     50.49%    100.00% (Unspecified)
system.caches.L1Cache_Controller.E.Load::total    669913205                       (Unspecified)
system.caches.L1Cache_Controller.E.Store |     7335889     49.96%     49.96% |     7346711     50.04%    100.00% (Unspecified)
system.caches.L1Cache_Controller.E.Store::total     14682600                       (Unspecified)
system.caches.L1Cache_Controller.E.Inv   |        7510     53.02%     53.02% |        6654     46.98%    100.00% (Unspecified)
system.caches.L1Cache_Controller.E.Inv::total        14164                       (Unspecified)
system.caches.L1Cache_Controller.E.L1_Replacement |    23512851     49.88%     49.88% |    23624249     50.12%    100.00% (Unspecified)
system.caches.L1Cache_Controller.E.L1_Replacement::total     47137100                       (Unspecified)
system.caches.L1Cache_Controller.E.Fwd_GETX |           3      0.22%      0.22% |        1381     99.78%    100.00% (Unspecified)
system.caches.L1Cache_Controller.E.Fwd_GETX::total         1384                       (Unspecified)
system.caches.L1Cache_Controller.E.Fwd_GETS |        1229     39.54%     39.54% |        1879     60.46%    100.00% (Unspecified)
system.caches.L1Cache_Controller.E.Fwd_GETS::total         3108                       (Unspecified)
system.caches.L1Cache_Controller.M.Load  |   141444560     51.21%     51.21% |   134740151     48.79%    100.00% (Unspecified)
system.caches.L1Cache_Controller.M.Load::total    276184711                       (Unspecified)
system.caches.L1Cache_Controller.M.Store |   116103477     50.09%     50.09% |   115692449     49.91%    100.00% (Unspecified)
system.caches.L1Cache_Controller.M.Store::total    231795926                       (Unspecified)
system.caches.L1Cache_Controller.M.Inv   |        6369     50.34%     50.34% |        6283     49.66%    100.00% (Unspecified)
system.caches.L1Cache_Controller.M.Inv::total        12652                       (Unspecified)
system.caches.L1Cache_Controller.M.L1_Replacement |    10183433     49.93%     49.93% |    10211454     50.07%    100.00% (Unspecified)
system.caches.L1Cache_Controller.M.L1_Replacement::total     20394887                       (Unspecified)
system.caches.L1Cache_Controller.M.Fwd_GETX |          80     74.07%     74.07% |          28     25.93%    100.00% (Unspecified)
system.caches.L1Cache_Controller.M.Fwd_GETX::total          108                       (Unspecified)
system.caches.L1Cache_Controller.M.Fwd_GETS |       34334     99.27%     99.27% |         253      0.73%    100.00% (Unspecified)
system.caches.L1Cache_Controller.M.Fwd_GETS::total        34587                       (Unspecified)
system.caches.L1Cache_Controller.IS.Inv  |           0      0.00%      0.00% |          11    100.00%    100.00% (Unspecified)
system.caches.L1Cache_Controller.IS.Inv::total           11                       (Unspecified)
system.caches.L1Cache_Controller.IS.Data_Exclusive |    30864233     49.90%     49.90% |    30987639     50.10%    100.00% (Unspecified)
system.caches.L1Cache_Controller.IS.Data_Exclusive::total     61851872                       (Unspecified)
system.caches.L1Cache_Controller.IS.DataS_fromL1 |        2132      5.66%      5.66% |       35552     94.34%    100.00% (Unspecified)
system.caches.L1Cache_Controller.IS.DataS_fromL1::total        37684                       (Unspecified)
system.caches.L1Cache_Controller.IS.Data_all_Acks |      369998     55.01%     55.01% |      302578     44.99%    100.00% (Unspecified)
system.caches.L1Cache_Controller.IS.Data_all_Acks::total       672576                       (Unspecified)
system.caches.L1Cache_Controller.IM.Data |        6249     99.79%     99.79% |          13      0.21%    100.00% (Unspecified)
system.caches.L1Cache_Controller.IM.Data::total         6262                       (Unspecified)
system.caches.L1Cache_Controller.IM.Data_all_Acks |     2854820     49.85%     49.85% |     2872302     50.15%    100.00% (Unspecified)
system.caches.L1Cache_Controller.IM.Data_all_Acks::total      5727122                       (Unspecified)
system.caches.L1Cache_Controller.SM.Inv  |           0      0.00%      0.00% |           1    100.00%    100.00% (Unspecified)
system.caches.L1Cache_Controller.SM.Inv::total            1                       (Unspecified)
system.caches.L1Cache_Controller.SM.Ack  |       28640     98.76%     98.76% |         360      1.24%    100.00% (Unspecified)
system.caches.L1Cache_Controller.SM.Ack::total        29000                       (Unspecified)
system.caches.L1Cache_Controller.SM.Ack_all |       34889     98.94%     98.94% |         373      1.06%    100.00% (Unspecified)
system.caches.L1Cache_Controller.SM.Ack_all::total        35262                       (Unspecified)
system.caches.L1Cache_Controller.IS_I.DataS_fromL1 |           0      0.00%      0.00% |          11    100.00%    100.00% (Unspecified)
system.caches.L1Cache_Controller.IS_I.DataS_fromL1::total           11                       (Unspecified)
system.caches.L1Cache_Controller.M_I.WB_Ack |    33696284     49.90%     49.90% |    33835703     50.10%    100.00% (Unspecified)
system.caches.L1Cache_Controller.M_I.WB_Ack::total     67531987                       (Unspecified)
system.caches.Directory_Controller.Fetch     56972350      0.00%      0.00% (Unspecified)
system.caches.Directory_Controller.Data      15133711      0.00%      0.00% (Unspecified)
system.caches.Directory_Controller.Memory_Data     56972377      0.00%      0.00% (Unspecified)
system.caches.Directory_Controller.Memory_Ack     15133711      0.00%      0.00% (Unspecified)
system.caches.Directory_Controller.DMA_READ         2403      0.00%      0.00% (Unspecified)
system.caches.Directory_Controller.CleanReplacement     41707567      0.00%      0.00% (Unspecified)
system.caches.Directory_Controller.I.Fetch     56972350      0.00%      0.00% (Unspecified)
system.caches.Directory_Controller.I.DMA_READ           29      0.00%      0.00% (Unspecified)
system.caches.Directory_Controller.ID.Memory_Data           29      0.00%      0.00% (Unspecified)
system.caches.Directory_Controller.M.Data     15131337      0.00%      0.00% (Unspecified)
system.caches.Directory_Controller.M.DMA_READ         2374      0.00%      0.00% (Unspecified)
system.caches.Directory_Controller.M.CleanReplacement     41707567      0.00%      0.00% (Unspecified)
system.caches.Directory_Controller.IM.Memory_Data     56972348      0.00%      0.00% (Unspecified)
system.caches.Directory_Controller.MI.Memory_Ack     15131337      0.00%      0.00% (Unspecified)
system.caches.Directory_Controller.M_DRD.Data         2374      0.00%      0.00% (Unspecified)
system.caches.Directory_Controller.M_DRDI.Memory_Ack         2374      0.00%      0.00% (Unspecified)
system.caches.DMA_Controller.ReadRequest |        2403    100.00%    100.00% |           0      0.00%    100.00% (Unspecified)
system.caches.DMA_Controller.ReadRequest::total         2403                       (Unspecified)
system.caches.DMA_Controller.Data        |        2403    100.00%    100.00% |           0      0.00%    100.00% (Unspecified)
system.caches.DMA_Controller.Data::total         2403                       (Unspecified)
system.caches.DMA_Controller.READY.ReadRequest |        2403    100.00%    100.00% |           0      0.00%    100.00% (Unspecified)
system.caches.DMA_Controller.READY.ReadRequest::total         2403                       (Unspecified)
system.caches.DMA_Controller.BUSY_RD.Data |        2403    100.00%    100.00% |           0      0.00%    100.00% (Unspecified)
system.caches.DMA_Controller.BUSY_RD.Data::total         2403                       (Unspecified)
system.caches.L2Cache_Controller.L1_GET_INSTR |       43091      9.21%      9.21% |       81635     17.45%     26.65% |       62448     13.35%     40.00% |       23419      5.00%     45.00% |       47546     10.16%     55.17% |       61622     13.17%     68.33% |       70826     15.14%     83.47% |       77349     16.53%    100.00% (Unspecified)
system.caches.L2Cache_Controller.L1_GET_INSTR::total       467936                       (Unspecified)
system.caches.L2Cache_Controller.L1_GETS |     7798339     12.56%     12.56% |     7767671     12.51%     25.06% |     7757814     12.49%     37.55% |     7741420     12.46%     50.02% |     7751442     12.48%     62.50% |     7746010     12.47%     74.97% |     7786807     12.54%     87.51% |     7758865     12.49%    100.00% (Unspecified)
system.caches.L2Cache_Controller.L1_GETS::total     62108368                       (Unspecified)
system.caches.L2Cache_Controller.L1_GETX |      725908     12.66%     12.66% |      715132     12.47%     25.13% |      708863     12.36%     37.50% |      713185     12.44%     49.94% |      711332     12.41%     62.34% |      724947     12.64%     74.99% |      716327     12.49%     87.48% |      717725     12.52%    100.00% (Unspecified)
system.caches.L2Cache_Controller.L1_GETX::total      5733419                       (Unspecified)
system.caches.L2Cache_Controller.L1_UPGRADE |        2857      7.01%      7.01% |        4110     10.09%     17.10% |          47      0.12%     17.22% |          26      0.06%     17.28% |         110      0.27%     17.55% |          32      0.08%     17.63% |       33437     82.09%     99.73% |         112      0.27%    100.00% (Unspecified)
system.caches.L2Cache_Controller.L1_UPGRADE::total        40731                       (Unspecified)
system.caches.L2Cache_Controller.L1_PUTX |     8448211     12.51%     12.51% |     8445626     12.51%     25.02% |     8430964     12.48%     37.50% |     8434025     12.49%     49.99% |     8435645     12.49%     62.48% |     8447226     12.51%     74.99% |     8446107     12.51%     87.50% |     8444183     12.50%    100.00% (Unspecified)
system.caches.L2Cache_Controller.L1_PUTX::total     67531987                       (Unspecified)
system.caches.L2Cache_Controller.L2_Replacement |     1890853     12.50%     12.50% |     1890809     12.50%     25.00% |     1890533     12.50%     37.50% |     1890132     12.50%     50.00% |     1890468     12.50%     62.50% |     1891126     12.50%     75.00% |     1890541     12.50%     87.50% |     1890915     12.50%    100.00% (Unspecified)
system.caches.L2Cache_Controller.L2_Replacement::total     15125377                       (Unspecified)
system.caches.L2Cache_Controller.L2_Replacement_clean |     5214812     12.50%     12.50% |     5216562     12.51%     25.01% |     5213710     12.50%     37.51% |     5212188     12.50%     50.00% |     5214151     12.50%     62.50% |     5214571     12.50%     75.00% |     5212650     12.50%     87.50% |     5214883     12.50%    100.00% (Unspecified)
system.caches.L2Cache_Controller.L2_Replacement_clean::total     41713527                       (Unspecified)
system.caches.L2Cache_Controller.Mem_Data |     7122347     12.50%     12.50% |     7124052     12.50%     25.01% |     7120924     12.50%     37.50% |     7119001     12.50%     50.00% |     7121299     12.50%     62.50% |     7122376     12.50%     75.00% |     7119871     12.50%     87.50% |     7122478     12.50%    100.00% (Unspecified)
system.caches.L2Cache_Controller.Mem_Data::total     56972348                       (Unspecified)
system.caches.L2Cache_Controller.Mem_Ack |     7105964     12.50%     12.50% |     7107668     12.50%     25.01% |     7104540     12.50%     37.50% |     7102617     12.50%     50.00% |     7104915     12.50%     62.50% |     7105993     12.50%     75.00% |     7103487     12.50%     87.50% |     7106094     12.50%    100.00% (Unspecified)
system.caches.L2Cache_Controller.Mem_Ack::total     56841278                       (Unspecified)
system.caches.L2Cache_Controller.WB_Data |        9818     20.78%     20.78% |        5375     11.38%     32.16% |         767      1.62%     33.79% |        1580      3.34%     37.13% |        1229      2.60%     39.73% |        2571      5.44%     45.17% |       23986     50.78%     95.95% |        1913      4.05%    100.00% (Unspecified)
system.caches.L2Cache_Controller.WB_Data::total        47239                       (Unspecified)
system.caches.L2Cache_Controller.WB_Data_clean |         330     10.62%     10.62% |         993     31.95%     42.57% |         381     12.26%     54.83% |         210      6.76%     61.58% |         360     11.58%     73.17% |         220      7.08%     80.24% |         208      6.69%     86.94% |         406     13.06%    100.00% (Unspecified)
system.caches.L2Cache_Controller.WB_Data_clean::total         3108                       (Unspecified)
system.caches.L2Cache_Controller.Ack     |       10300     13.37%     13.37% |        9926     12.89%     26.26% |        9176     11.92%     38.18% |        8445     10.97%     49.15% |       10550     13.70%     62.85% |       10247     13.31%     76.15% |        9102     11.82%     87.97% |        9264     12.03%    100.00% (Unspecified)
system.caches.L2Cache_Controller.Ack::total        77010                       (Unspecified)
system.caches.L2Cache_Controller.Ack_all |       15233     13.04%     13.04% |       16744     14.33%     27.37% |       14277     12.22%     39.59% |       12679     10.85%     50.44% |       14868     12.73%     63.17% |       14446     12.36%     75.53% |       13385     11.46%     86.99% |       15205     13.01%    100.00% (Unspecified)
system.caches.L2Cache_Controller.Ack_all::total       116837                       (Unspecified)
system.caches.L2Cache_Controller.Unblock |        8187     21.72%     21.72% |        4416     11.72%     33.43% |         434      1.15%     34.59% |         238      0.63%     35.22% |         499      1.32%     36.54% |         257      0.68%     37.22% |       23139     61.38%     98.61% |         525      1.39%    100.00% (Unspecified)
system.caches.L2Cache_Controller.Unblock::total        37695                       (Unspecified)
system.caches.L2Cache_Controller.Exclusive_Unblock |     8462962     12.52%     12.52% |     8457045     12.51%     25.02% |     8436130     12.48%     37.50% |     8439143     12.48%     49.98% |     8440958     12.48%     62.47% |     8453614     12.50%     74.97% |     8474223     12.53%     87.50% |     8450181     12.50%    100.00% (Unspecified)
system.caches.L2Cache_Controller.Exclusive_Unblock::total     67614256                       (Unspecified)
system.caches.L2Cache_Controller.MEM_Inv |         598     12.59%     12.59% |         594     12.51%     25.11% |         594     12.51%     37.62% |         594     12.51%     50.13% |         592     12.47%     62.59% |         592     12.47%     75.06% |         592     12.47%     87.53% |         592     12.47%    100.00% (Unspecified)
system.caches.L2Cache_Controller.MEM_Inv::total         4748                       (Unspecified)
system.caches.L2Cache_Controller.NP.L1_GET_INSTR |       13488     13.62%     13.62% |       13278     13.40%     27.02% |       11644     11.75%     38.77% |       11076     11.18%     49.95% |       12708     12.83%     62.78% |       12558     12.68%     75.46% |       11319     11.43%     86.88% |       12995     13.12%    100.00% (Unspecified)
system.caches.L2Cache_Controller.NP.L1_GET_INSTR::total        99066                       (Unspecified)
system.caches.L2Cache_Controller.NP.L1_GETS |     6403593     12.50%     12.50% |     6405722     12.50%     25.00% |     6404996     12.50%     37.50% |     6403225     12.50%     50.00% |     6403971     12.50%     62.50% |     6403933     12.50%     75.00% |     6403938     12.50%     87.50% |     6404499     12.50%    100.00% (Unspecified)
system.caches.L2Cache_Controller.NP.L1_GETS::total     51233877                       (Unspecified)
system.caches.L2Cache_Controller.NP.L1_GETX |      705267     12.51%     12.51% |      705052     12.50%     25.01% |      704284     12.49%     37.50% |      704700     12.50%     49.99% |      704620     12.49%     62.49% |      705886     12.52%     75.00% |      704614     12.49%     87.50% |      704984     12.50%    100.00% (Unspecified)
system.caches.L2Cache_Controller.NP.L1_GETX::total      5639407                       (Unspecified)
system.caches.L2Cache_Controller.SS.L1_GET_INSTR |       25197      7.45%      7.45% |       64042     18.94%     26.39% |       47291     13.99%     40.38% |        8714      2.58%     42.96% |       30693      9.08%     52.03% |       45024     13.32%     65.35% |       56100     16.59%     81.94% |       61066     18.06%    100.00% (Unspecified)
system.caches.L2Cache_Controller.SS.L1_GET_INSTR::total       338127                       (Unspecified)
system.caches.L2Cache_Controller.SS.L1_GETS |       55445     27.47%     27.47% |       24966     12.37%     39.84% |       29510     14.62%     54.46% |       14936      7.40%     61.86% |       21122     10.46%     72.33% |       16797      8.32%     80.65% |       13488      6.68%     87.33% |       25573     12.67%    100.00% (Unspecified)
system.caches.L2Cache_Controller.SS.L1_GETS::total       201837                       (Unspecified)
system.caches.L2Cache_Controller.SS.L1_GETX |        4999     79.83%     79.83% |           3      0.05%     79.88% |           5      0.08%     79.96% |           2      0.03%     79.99% |          25      0.40%     80.39% |           3      0.05%     80.44% |        1222     19.51%     99.95% |           3      0.05%    100.00% (Unspecified)
system.caches.L2Cache_Controller.SS.L1_GETX::total         6262                       (Unspecified)
system.caches.L2Cache_Controller.SS.L1_UPGRADE |        2856      9.85%      9.85% |        4109     14.17%     24.02% |          47      0.16%     24.18% |          26      0.09%     24.27% |         110      0.38%     24.65% |          32      0.11%     24.76% |       21708     74.86%     99.61% |         112      0.39%    100.00% (Unspecified)
system.caches.L2Cache_Controller.SS.L1_UPGRADE::total        29000                       (Unspecified)
system.caches.L2Cache_Controller.SS.L2_Replacement |          11     14.29%     14.29% |          12     15.58%     29.87% |          11     14.29%     44.16% |           7      9.09%     53.25% |          14     18.18%     71.43% |           6      7.79%     79.22% |           8     10.39%     89.61% |           8     10.39%    100.00% (Unspecified)
system.caches.L2Cache_Controller.SS.L2_Replacement::total           77                       (Unspecified)
system.caches.L2Cache_Controller.SS.L2_Replacement_clean |       14012     13.66%     13.66% |       13742     13.39%     27.05% |       12283     11.97%     39.02% |       11400     11.11%     50.14% |       13170     12.84%     62.97% |       12894     12.57%     75.54% |       11529     11.24%     86.78% |       13566     13.22%    100.00% (Unspecified)
system.caches.L2Cache_Controller.SS.L2_Replacement_clean::total       102596                       (Unspecified)
system.caches.L2Cache_Controller.M.L1_GETS |     1330853     12.53%     12.53% |     1332304     12.55%     25.08% |     1322537     12.45%     37.53% |     1322858     12.46%     49.99% |     1325698     12.48%     62.47% |     1324860     12.48%     74.95% |     1332293     12.55%     87.49% |     1328048     12.51%    100.00% (Unspecified)
system.caches.L2Cache_Controller.M.L1_GETS::total     10619451                       (Unspecified)
system.caches.L2Cache_Controller.M.L1_GETX |       14273     16.55%     16.55% |       10037     11.64%     28.19% |        4559      5.29%     33.48% |        8462      9.81%     43.30% |        6678      7.75%     51.04% |       19042     22.08%     73.13% |       10454     12.12%     85.25% |       12718     14.75%    100.00% (Unspecified)
system.caches.L2Cache_Controller.M.L1_GETX::total        86223                       (Unspecified)
system.caches.L2Cache_Controller.M.L2_Replacement |     1889782     12.50%     12.50% |     1889872     12.50%     25.00% |     1890252     12.50%     37.50% |     1889321     12.50%     50.00% |     1889846     12.50%     62.50% |     1889758     12.50%     75.00% |     1889890     12.50%     87.50% |     1889938     12.50%    100.00% (Unspecified)
system.caches.L2Cache_Controller.M.L2_Replacement::total     15118659                       (Unspecified)
system.caches.L2Cache_Controller.M.L2_Replacement_clean |     5198949     12.50%     12.50% |     5199063     12.50%     25.00% |     5199262     12.50%     37.50% |     5199031     12.50%     50.00% |     5199076     12.50%     62.50% |     5199222     12.50%     75.00% |     5199122     12.50%     87.50% |     5199122     12.50%    100.00% (Unspecified)
system.caches.L2Cache_Controller.M.L2_Replacement_clean::total     41592847                       (Unspecified)
system.caches.L2Cache_Controller.M.MEM_Inv |          39     13.78%     13.78% |          37     13.07%     26.86% |          35     12.37%     39.22% |          34     12.01%     51.24% |          35     12.37%     63.60% |          33     11.66%     75.27% |          35     12.37%     87.63% |          35     12.37%    100.00% (Unspecified)
system.caches.L2Cache_Controller.M.MEM_Inv::total          283                       (Unspecified)
system.caches.L2Cache_Controller.MT.L1_GETS |        8187     21.72%     21.72% |        4416     11.72%     33.43% |         434      1.15%     34.59% |         238      0.63%     35.22% |         499      1.32%     36.54% |         257      0.68%     37.22% |       23139     61.38%     98.61% |         525      1.39%    100.00% (Unspecified)
system.caches.L2Cache_Controller.MT.L1_GETS::total        37695                       (Unspecified)
system.caches.L2Cache_Controller.MT.L1_GETX |        1365     91.49%     91.49% |          31      2.08%     93.57% |          10      0.67%     94.24% |          17      1.14%     95.38% |           5      0.34%     95.71% |          11      0.74%     96.45% |          33      2.21%     98.66% |          20      1.34%    100.00% (Unspecified)
system.caches.L2Cache_Controller.MT.L1_GETX::total         1492                       (Unspecified)
system.caches.L2Cache_Controller.MT.L1_PUTX |     8448211     12.51%     12.51% |     8445626     12.51%     25.02% |     8430964     12.48%     37.50% |     8434025     12.49%     49.99% |     8435645     12.49%     62.48% |     8447226     12.51%     74.99% |     8446107     12.51%     87.50% |     8444183     12.50%    100.00% (Unspecified)
system.caches.L2Cache_Controller.MT.L1_PUTX::total     67531987                       (Unspecified)
system.caches.L2Cache_Controller.MT.L2_Replacement |        1060     15.96%     15.96% |         925     13.93%     29.89% |         270      4.07%     33.96% |         804     12.11%     46.06% |         608      9.16%     55.22% |        1362     20.51%     75.73% |         643      9.68%     85.41% |         969     14.59%    100.00% (Unspecified)
system.caches.L2Cache_Controller.MT.L2_Replacement::total         6641                       (Unspecified)
system.caches.L2Cache_Controller.MT.L2_Replacement_clean |        1851     10.24%     10.24% |        3757     20.78%     31.01% |        2165     11.97%     42.98% |        1757      9.72%     52.70% |        1905     10.53%     63.23% |        2455     13.58%     76.81% |        1999     11.05%     87.86% |        2195     12.14%    100.00% (Unspecified)
system.caches.L2Cache_Controller.MT.L2_Replacement_clean::total        18084                       (Unspecified)
system.caches.L2Cache_Controller.MT.MEM_Inv |         260     12.43%     12.43% |         260     12.43%     24.87% |         262     12.53%     37.40% |         263     12.58%     49.98% |         261     12.48%     62.46% |         263     12.58%     75.04% |         261     12.48%     87.52% |         261     12.48%    100.00% (Unspecified)
system.caches.L2Cache_Controller.MT.MEM_Inv::total         2091                       (Unspecified)
system.caches.L2Cache_Controller.M_I.L1_GET_INSTR |          13     12.50%     12.50% |           8      7.69%     20.19% |          19     18.27%     38.46% |          18     17.31%     55.77% |          16     15.38%     71.15% |           7      6.73%     77.88% |          13     12.50%     90.38% |          10      9.62%    100.00% (Unspecified)
system.caches.L2Cache_Controller.M_I.L1_GET_INSTR::total          104                       (Unspecified)
system.caches.L2Cache_Controller.M_I.L1_GETS |          12     11.01%     11.01% |          39     35.78%     46.79% |          23     21.10%     67.89% |          12     11.01%     78.90% |           3      2.75%     81.65% |           3      2.75%     84.40% |           2      1.83%     86.24% |          15     13.76%    100.00% (Unspecified)
system.caches.L2Cache_Controller.M_I.L1_GETS::total          109                       (Unspecified)
system.caches.L2Cache_Controller.M_I.L1_GETX |           4     12.12%     12.12% |           7     21.21%     33.33% |           5     15.15%     48.48% |           4     12.12%     60.61% |           4     12.12%     72.73% |           5     15.15%     87.88% |           4     12.12%    100.00% |           0      0.00%    100.00% (Unspecified)
system.caches.L2Cache_Controller.M_I.L1_GETX::total           33                       (Unspecified)
system.caches.L2Cache_Controller.M_I.Mem_Ack |     7105964     12.50%     12.50% |     7107668     12.50%     25.01% |     7104540     12.50%     37.50% |     7102617     12.50%     50.00% |     7104915     12.50%     62.50% |     7105993     12.50%     75.00% |     7103487     12.50%     87.50% |     7106094     12.50%    100.00% (Unspecified)
system.caches.L2Cache_Controller.M_I.Mem_Ack::total     56841278                       (Unspecified)
system.caches.L2Cache_Controller.M_I.MEM_Inv |          39     13.78%     13.78% |          37     13.07%     26.86% |          35     12.37%     39.22% |          34     12.01%     51.24% |          35     12.37%     63.60% |          33     11.66%     75.27% |          35     12.37%     87.63% |          35     12.37%    100.00% (Unspecified)
system.caches.L2Cache_Controller.M_I.MEM_Inv::total          283                       (Unspecified)
system.caches.L2Cache_Controller.MT_I.WB_Data |        1071     16.00%     16.00% |         931     13.91%     29.92% |         285      4.26%     34.18% |         819     12.24%     46.41% |         617      9.22%     55.63% |        1369     20.46%     76.09% |         620      9.26%     85.36% |         980     14.64%    100.00% (Unspecified)
system.caches.L2Cache_Controller.MT_I.WB_Data::total         6692                       (Unspecified)
system.caches.L2Cache_Controller.MT_I.Ack_all |         249     12.21%     12.21% |         254     12.45%     24.66% |         247     12.11%     36.76% |         248     12.16%     48.92% |         252     12.35%     61.27% |         256     12.55%     73.82% |         284     13.92%     87.75% |         250     12.25%    100.00% (Unspecified)
system.caches.L2Cache_Controller.MT_I.Ack_all::total         2040                       (Unspecified)
system.caches.L2Cache_Controller.MT_I.MEM_Inv |         260     12.43%     12.43% |         260     12.43%     24.87% |         262     12.53%     37.40% |         263     12.58%     49.98% |         261     12.48%     62.46% |         263     12.58%     75.04% |         261     12.48%     87.52% |         261     12.48%    100.00% (Unspecified)
system.caches.L2Cache_Controller.MT_I.MEM_Inv::total         2091                       (Unspecified)
system.caches.L2Cache_Controller.MCT_I.WB_Data |         890     14.93%     14.93% |        1021     17.13%     32.06% |         429      7.20%     39.26% |         733     12.30%     51.56% |         473      7.94%     59.50% |        1165     19.55%     79.04% |         435      7.30%     86.34% |         814     13.66%    100.00% (Unspecified)
system.caches.L2Cache_Controller.MCT_I.WB_Data::total         5960                       (Unspecified)
system.caches.L2Cache_Controller.MCT_I.Ack_all |         961      7.93%      7.93% |        2736     22.57%     30.49% |        1736     14.32%     44.81% |        1024      8.45%     53.26% |        1432     11.81%     65.07% |        1290     10.64%     75.71% |        1564     12.90%     88.61% |        1381     11.39%    100.00% (Unspecified)
system.caches.L2Cache_Controller.MCT_I.Ack_all::total        12124                       (Unspecified)
system.caches.L2Cache_Controller.I_I.L1_GET_INSTR |           0      0.00%      0.00% |           0      0.00%      0.00% |           1    100.00%    100.00% |           0      0.00%    100.00% |           0      0.00%    100.00% |           0      0.00%    100.00% |           0      0.00%    100.00% |           0      0.00%    100.00% (Unspecified)
system.caches.L2Cache_Controller.I_I.L1_GET_INSTR::total            1                       (Unspecified)
system.caches.L2Cache_Controller.I_I.Ack |       10289     13.37%     13.37% |        9914     12.89%     26.26% |        9165     11.91%     38.17% |        8438     10.97%     49.14% |       10536     13.70%     62.84% |       10241     13.31%     76.15% |        9094     11.82%     87.97% |        9256     12.03%    100.00% (Unspecified)
system.caches.L2Cache_Controller.I_I.Ack::total        76933                       (Unspecified)
system.caches.L2Cache_Controller.I_I.Ack_all |       14012     13.66%     13.66% |       13742     13.39%     27.05% |       12283     11.97%     39.02% |       11400     11.11%     50.14% |       13170     12.84%     62.97% |       12894     12.57%     75.54% |       11529     11.24%     86.78% |       13566     13.22%    100.00% (Unspecified)
system.caches.L2Cache_Controller.I_I.Ack_all::total       102596                       (Unspecified)
system.caches.L2Cache_Controller.S_I.Ack |          11     14.29%     14.29% |          12     15.58%     29.87% |          11     14.29%     44.16% |           7      9.09%     53.25% |          14     18.18%     71.43% |           6      7.79%     79.22% |           8     10.39%     89.61% |           8     10.39%    100.00% (Unspecified)
system.caches.L2Cache_Controller.S_I.Ack::total           77                       (Unspecified)
system.caches.L2Cache_Controller.S_I.Ack_all |          11     14.29%     14.29% |          12     15.58%     29.87% |          11     14.29%     44.16% |           7      9.09%     53.25% |          14     18.18%     71.43% |           6      7.79%     79.22% |           8     10.39%     89.61% |           8     10.39%    100.00% (Unspecified)
system.caches.L2Cache_Controller.S_I.Ack_all::total           77                       (Unspecified)
system.caches.L2Cache_Controller.ISS.L1_GETS |         243     16.71%     16.71% |         213     14.65%     31.36% |         308     21.18%     52.54% |         147     10.11%     62.65% |         149     10.25%     72.90% |         152     10.45%     83.36% |          39      2.68%     86.04% |         203     13.96%    100.00% (Unspecified)
system.caches.L2Cache_Controller.ISS.L1_GETS::total         1454                       (Unspecified)
system.caches.L2Cache_Controller.ISS.Mem_Data |     6403349     12.50%     12.50% |     6405509     12.50%     25.00% |     6404688     12.50%     37.50% |     6403078     12.50%     50.00% |     6403822     12.50%     62.50% |     6403780     12.50%     75.00% |     6403899     12.50%     87.50% |     6404296     12.50%    100.00% (Unspecified)
system.caches.L2Cache_Controller.ISS.Mem_Data::total     51232421                       (Unspecified)
system.caches.L2Cache_Controller.IS.L1_GET_INSTR |        4393     14.34%     14.34% |        4307     14.06%     28.40% |        3493     11.40%     39.80% |        3611     11.79%     51.58% |        4129     13.48%     65.06% |        4033     13.16%     78.22% |        3394     11.08%     89.30% |        3278     10.70%    100.00% (Unspecified)
system.caches.L2Cache_Controller.IS.L1_GET_INSTR::total        30638                       (Unspecified)
system.caches.L2Cache_Controller.IS.Mem_Data |       13731     13.66%     13.66% |       13491     13.42%     27.08% |       11952     11.89%     38.97% |       11223     11.16%     50.14% |       12857     12.79%     62.93% |       12710     12.64%     75.57% |       11358     11.30%     86.87% |       13198     13.13%    100.00% (Unspecified)
system.caches.L2Cache_Controller.IS.Mem_Data::total       100520                       (Unspecified)
system.caches.L2Cache_Controller.IM.L1_GETX |           0      0.00%      0.00% |           2    100.00%    100.00% |           0      0.00%    100.00% |           0      0.00%    100.00% |           0      0.00%    100.00% |           0      0.00%    100.00% |           0      0.00%    100.00% |           0      0.00%    100.00% (Unspecified)
system.caches.L2Cache_Controller.IM.L1_GETX::total            2                       (Unspecified)
system.caches.L2Cache_Controller.IM.Mem_Data |      705267     12.51%     12.51% |      705052     12.50%     25.01% |      704284     12.49%     37.50% |      704700     12.50%     49.99% |      704620     12.49%     62.49% |      705886     12.52%     75.00% |      704614     12.49%     87.50% |      704984     12.50%    100.00% (Unspecified)
system.caches.L2Cache_Controller.IM.Mem_Data::total      5639407                       (Unspecified)
system.caches.L2Cache_Controller.SS_MB.L1_GETS |           4      0.03%      0.03% |           0      0.00%      0.03% |           0      0.00%      0.03% |           0      0.00%      0.03% |           0      0.00%      0.03% |           0      0.00%      0.03% |       13905     99.97%    100.00% |           0      0.00%    100.00% (Unspecified)
system.caches.L2Cache_Controller.SS_MB.L1_GETS::total        13909                       (Unspecified)
system.caches.L2Cache_Controller.SS_MB.L1_UPGRADE |           1    100.00%    100.00% |           0      0.00%    100.00% |           0      0.00%    100.00% |           0      0.00%    100.00% |           0      0.00%    100.00% |           0      0.00%    100.00% |           0      0.00%    100.00% |           0      0.00%    100.00% (Unspecified)
system.caches.L2Cache_Controller.SS_MB.L1_UPGRADE::total            1                       (Unspecified)
system.caches.L2Cache_Controller.SS_MB.Exclusive_Unblock |        7855     22.28%     22.28% |        4112     11.66%     33.94% |          52      0.15%     34.08% |          28      0.08%     34.16% |         135      0.38%     34.55% |          35      0.10%     34.65% |       22930     65.03%     99.67% |         115      0.33%    100.00% (Unspecified)
system.caches.L2Cache_Controller.SS_MB.Exclusive_Unblock::total        35262                       (Unspecified)
system.caches.L2Cache_Controller.MT_MB.L1_GETS |           2      5.56%      5.56% |          11     30.56%     36.11% |           6     16.67%     52.78% |           4     11.11%     63.89% |           0      0.00%     63.89% |           8     22.22%     86.11% |           3      8.33%     94.44% |           2      5.56%    100.00% (Unspecified)
system.caches.L2Cache_Controller.MT_MB.L1_GETS::total           36                       (Unspecified)
system.caches.L2Cache_Controller.MT_MB.Exclusive_Unblock |     8455107     12.51%     12.51% |     8452933     12.51%     25.02% |     8436078     12.48%     37.50% |     8439115     12.49%     49.99% |     8440823     12.49%     62.48% |     8453579     12.51%     74.99% |     8451293     12.51%     87.50% |     8450066     12.50%    100.00% (Unspecified)
[...]
system.timingCpu0.exec_context.thread_0.statExecutedInstType::FloatMemWrite    123225196      5.63%    100.00% # Class of executed instruction. (Count)
system.timingCpu0.exec_context.thread_0.statExecutedInstType::IprAccess            0      0.00%    100.00% # Class of executed instruction. (Count)
system.timingCpu0.exec_context.thread_0.statExecutedInstType::InstPrefetch            0      0.00%    100.00% # Class of executed instruction. (Count)
system.timingCpu0.exec_context.thread_0.statExecutedInstType::total   2188116806                       # Class of executed instruction. (Count)
system.timingCpu0.mmu.dtb.rdAccesses        504978725                       # TLB accesses on read requests (Count)
system.timingCpu0.mmu.dtb.wrAccesses        126027922                       # TLB accesses on write requests (Count)
system.timingCpu0.mmu.dtb.rdMisses             144078                       # TLB misses on read requests (Count)
system.timingCpu0.mmu.dtb.wrMisses              14768                       # TLB misses on write requests (Count)
system.timingCpu0.mmu.dtb.walker.power_state.pwrStateResidencyTicks::UNDEFINED 25963887240500                       # Cumulative time (in ticks) in various power states (Tick)
system.timingCpu0.mmu.itb.rdAccesses                0                       # TLB accesses on read requests (Count)
system.timingCpu0.mmu.itb.wrAccesses       2116172610                       # TLB accesses on write requests (Count)
system.timingCpu0.mmu.itb.rdMisses                  0                       # TLB misses on read requests (Count)
system.timingCpu0.mmu.itb.wrMisses               6483                       # TLB misses on write requests (Count)
system.timingCpu0.mmu.itb.walker.power_state.pwrStateResidencyTicks::UNDEFINED 25963887240500                       # Cumulative time (in ticks) in various power states (Tick)
system.timingCpu0.power_state.numTransitions           16                       # Number of power state transitions (Count)
system.timingCpu0.power_state.ticksClkGated::samples            8                       # Distribution of time spent in the clock gated state (Tick)
system.timingCpu0.power_state.ticksClkGated::mean    855770500                       # Distribution of time spent in the clock gated state (Tick)
system.timingCpu0.power_state.ticksClkGated::stdev 287194912.581253                       # Distribution of time spent in the clock gated state (Tick)
system.timingCpu0.power_state.ticksClkGated::1000-5e+10            8    100.00%    100.00% # Distribution of time spent in the clock gated state (Tick)
system.timingCpu0.power_state.ticksClkGated::min_value    201960750                       # Distribution of time spent in the clock gated state (Tick)
system.timingCpu0.power_state.ticksClkGated::max_value    997804750                       # Distribution of time spent in the clock gated state (Tick)
system.timingCpu0.power_state.ticksClkGated::total            8                       # Distribution of time spent in the clock gated state (Tick)
system.timingCpu0.power_state.pwrStateResidencyTicks::ON 4141714522500                       # Cumulative time (in ticks) in various power states (Tick)
system.timingCpu0.power_state.pwrStateResidencyTicks::CLK_GATED   6846164000                       # Cumulative time (in ticks) in various power states (Tick)
system.timingCpu0.power_state.pwrStateResidencyTicks::OFF 21815326554000                       # Cumulative time (in ticks) in various power states (Tick)
system.timingCpu0.thread_0.numInsts                 0                       # Number of Instructions committed (Count)
system.timingCpu0.thread_0.numOps                   0                       # Number of Ops committed (Count)
system.timingCpu0.thread_0.numMemRefs               0                       # Number of Memory References (Count)
system.timingCpu1.numCycles               19999999850                       # Number of cpu cycles simulated (Cycle)
system.timingCpu1.numWorkItemsStarted               0                       # Number of work items this cpu started (Count)
system.timingCpu1.numWorkItemsCompleted             0                       # Number of work items this cpu completed (Count)
system.timingCpu1.exec_context.thread_0.numInsts   1369996029                       # Number of instructions committed (Count)
system.timingCpu1.exec_context.thread_0.numOps   2188353084                       # Number of ops (including micro ops) committed (Count)
system.timingCpu1.exec_context.thread_0.numIntAluAccesses    814088690                       # Number of integer alu accesses (Count)
system.timingCpu1.exec_context.thread_0.numFpAluAccesses   1995775027                       # Number of float alu accesses (Count)
system.timingCpu1.exec_context.thread_0.numVecAluAccesses            0                       # Number of vector alu accesses (Count)
system.timingCpu1.exec_context.thread_0.numCallsReturns       841569                       # Number of times a function call or return occured (Count)
system.timingCpu1.exec_context.thread_0.numCondCtrlInsts     14394838                       # Number of instructions that are conditional controls (Count)
system.timingCpu1.exec_context.thread_0.numIntInsts    814088690                       # Number of integer instructions (Count)
system.timingCpu1.exec_context.thread_0.numFpInsts   1995775027                       # Number of float instructions (Count)
system.timingCpu1.exec_context.thread_0.numVecInsts            0                       # Number of vector instructions (Count)
system.timingCpu1.exec_context.thread_0.numIntRegReads    822866210                       # Number of times the integer registers were read (Count)
system.timingCpu1.exec_context.thread_0.numIntRegWrites    159817710                       # Number of times the integer registers were written (Count)
system.timingCpu1.exec_context.thread_0.numFpRegReads   3302050515                       # Number of times the floating registers were read (Count)
system.timingCpu1.exec_context.thread_0.numFpRegWrites   1872137357                       # Number of times the floating registers were written (Count)
system.timingCpu1.exec_context.thread_0.numVecRegReads            0                       # Number of times the vector registers were read (Count)
system.timingCpu1.exec_context.thread_0.numVecRegWrites            0                       # Number of times the vector registers were written (Count)
system.timingCpu1.exec_context.thread_0.numVecPredRegReads            0                       # Number of times the predicate registers were read (Count)
system.timingCpu1.exec_context.thread_0.numVecPredRegWrites            0                       # Number of times the predicate registers were written (Count)
system.timingCpu1.exec_context.thread_0.numCCRegReads     76696979                       # Number of times the CC registers were read (Count)
system.timingCpu1.exec_context.thread_0.numCCRegWrites    144357731                       # Number of times the CC registers were written (Count)
system.timingCpu1.exec_context.thread_0.numMiscRegReads    662223857                       # Number of times the Misc registers were read (Count)
system.timingCpu1.exec_context.thread_0.numMiscRegWrites       174427                       # Number of times the Misc registers were written (Count)
system.timingCpu1.exec_context.thread_0.numMemRefs    630638578                       # Number of memory refs (Count)
system.timingCpu1.exec_context.thread_0.numLoadInsts    504955903                       # Number of load instructions (Count)
system.timingCpu1.exec_context.thread_0.numStoreInsts    125682675                       # Number of store instructions (Count)
system.timingCpu1.exec_context.thread_0.numIdleCycles 5708713.957184                       # Number of idle cycles (Cycle)
system.timingCpu1.exec_context.thread_0.numBusyCycles 19994291136.042816                       # Number of busy cycles (Cycle)
system.timingCpu1.exec_context.thread_0.notIdleFraction     0.999715                       # Percentage of non-idle cycles (Ratio)
system.timingCpu1.exec_context.thread_0.idleFraction     0.000285                       # Percentage of idle cycles (Ratio)
system.timingCpu1.exec_context.thread_0.numBranches     15720386                       # Number of branches fetched (Count)
system.timingCpu1.exec_context.thread_0.statExecutedInstType::No_OpClass       133758      0.01%      0.01% # Class of executed instruction. (Count)
system.timingCpu1.exec_context.thread_0.statExecutedInstType::IntAlu    513935866     23.49%     23.49% # Class of executed instruction. (Count)
system.timingCpu1.exec_context.thread_0.statExecutedInstType::IntMult       117593      0.01%     23.50% # Class of executed instruction. (Count)
system.timingCpu1.exec_context.thread_0.statExecutedInstType::IntDiv       228363      0.01%     23.51% # Class of executed instruction. (Count)
system.timingCpu1.exec_context.thread_0.statExecutedInstType::FloatAdd    203664505      9.31%     32.81% # Class of executed instruction. (Count)
system.timingCpu1.exec_context.thread_0.statExecutedInstType::FloatCmp            0      0.00%     32.81% # Class of executed instruction. (Count)
system.timingCpu1.exec_context.thread_0.statExecutedInstType::FloatCvt          256      0.00%     32.81% # Class of executed instruction. (Count)
system.timingCpu1.exec_context.thread_0.statExecutedInstType::FloatMult            0      0.00%     32.81% # Class of executed instruction. (Count)
system.timingCpu1.exec_context.thread_0.statExecutedInstType::FloatMultAcc            0      0.00%     32.81% # Class of executed instruction. (Count)
system.timingCpu1.exec_context.thread_0.statExecutedInstType::FloatDiv            0      0.00%     32.81% # Class of executed instruction. (Count)
system.timingCpu1.exec_context.thread_0.statExecutedInstType::FloatMisc            0      0.00%     32.81% # Class of executed instruction. (Count)
system.timingCpu1.exec_context.thread_0.statExecutedInstType::FloatSqrt            0      0.00%     32.81% # Class of executed instruction. (Count)
system.timingCpu1.exec_context.thread_0.statExecutedInstType::SimdAdd            0      0.00%     32.81% # Class of executed instruction. (Count)
system.timingCpu1.exec_context.thread_0.statExecutedInstType::SimdAddAcc            0      0.00%     32.81% # Class of executed instruction. (Count)
system.timingCpu1.exec_context.thread_0.statExecutedInstType::SimdAlu        21116      0.00%     32.81% # Class of executed instruction. (Count)
system.timingCpu1.exec_context.thread_0.statExecutedInstType::SimdCmp         1132      0.00%     32.81% # Class of executed instruction. (Count)
system.timingCpu1.exec_context.thread_0.statExecutedInstType::SimdCvt        15470      0.00%     32.82% # Class of executed instruction. (Count)
system.timingCpu1.exec_context.thread_0.statExecutedInstType::SimdMisc        31321      0.00%     32.82% # Class of executed instruction. (Count)
system.timingCpu1.exec_context.thread_0.statExecutedInstType::SimdMult            0      0.00%     32.82% # Class of executed instruction. (Count)
system.timingCpu1.exec_context.thread_0.statExecutedInstType::SimdMultAcc            0      0.00%     32.82% # Class of executed instruction. (Count)
system.timingCpu1.exec_context.thread_0.statExecutedInstType::SimdShift            0      0.00%     32.82% # Class of executed instruction. (Count)
system.timingCpu1.exec_context.thread_0.statExecutedInstType::SimdShiftAcc            0      0.00%     32.82% # Class of executed instruction. (Count)
system.timingCpu1.exec_context.thread_0.statExecutedInstType::SimdDiv            0      0.00%     32.82% # Class of executed instruction. (Count)
system.timingCpu1.exec_context.thread_0.statExecutedInstType::SimdSqrt            0      0.00%     32.82% # Class of executed instruction. (Count)
system.timingCpu1.exec_context.thread_0.statExecutedInstType::SimdFloatAdd    495850312     22.66%     55.48% # Class of executed instruction. (Count)
system.timingCpu1.exec_context.thread_0.statExecutedInstType::SimdFloatAlu            0      0.00%     55.48% # Class of executed instruction. (Count)
system.timingCpu1.exec_context.thread_0.statExecutedInstType::SimdFloatCmp            0      0.00%     55.48% # Class of executed instruction. (Count)
system.timingCpu1.exec_context.thread_0.statExecutedInstType::SimdFloatCvt            0      0.00%     55.48% # Class of executed instruction. (Count)
system.timingCpu1.exec_context.thread_0.statExecutedInstType::SimdFloatDiv      1979529      0.09%     55.57% # Class of executed instruction. (Count)
system.timingCpu1.exec_context.thread_0.statExecutedInstType::SimdFloatMisc            0      0.00%     55.57% # Class of executed instruction. (Count)
system.timingCpu1.exec_context.thread_0.statExecutedInstType::SimdFloatMult    341735337     15.62%     71.18% # Class of executed instruction. (Count)
system.timingCpu1.exec_context.thread_0.statExecutedInstType::SimdFloatMultAcc            0      0.00%     71.18% # Class of executed instruction. (Count)
system.timingCpu1.exec_context.thread_0.statExecutedInstType::SimdFloatSqrt            0      0.00%     71.18% # Class of executed instruction. (Count)
system.timingCpu1.exec_context.thread_0.statExecutedInstType::SimdReduceAdd            0      0.00%     71.18% # Class of executed instruction. (Count)
system.timingCpu1.exec_context.thread_0.statExecutedInstType::SimdReduceAlu            0      0.00%     71.18% # Class of executed instruction. (Count)
system.timingCpu1.exec_context.thread_0.statExecutedInstType::SimdReduceCmp            0      0.00%     71.18% # Class of executed instruction. (Count)
system.timingCpu1.exec_context.thread_0.statExecutedInstType::SimdFloatReduceAdd            0      0.00%     71.18% # Class of executed instruction. (Count)
system.timingCpu1.exec_context.thread_0.statExecutedInstType::SimdFloatReduceCmp            0      0.00%     71.18% # Class of executed instruction. (Count)
system.timingCpu1.exec_context.thread_0.statExecutedInstType::SimdAes            0      0.00%     71.18% # Class of executed instruction. (Count)
system.timingCpu1.exec_context.thread_0.statExecutedInstType::SimdAesMix            0      0.00%     71.18% # Class of executed instruction. (Count)
system.timingCpu1.exec_context.thread_0.statExecutedInstType::SimdSha1Hash            0      0.00%     71.18% # Class of executed instruction. (Count)
system.timingCpu1.exec_context.thread_0.statExecutedInstType::SimdSha1Hash2            0      0.00%     71.18% # Class of executed instruction. (Count)
system.timingCpu1.exec_context.thread_0.statExecutedInstType::SimdSha256Hash            0      0.00%     71.18% # Class of executed instruction. (Count)
system.timingCpu1.exec_context.thread_0.statExecutedInstType::SimdSha256Hash2            0      0.00%     71.18% # Class of executed instruction. (Count)
system.timingCpu1.exec_context.thread_0.statExecutedInstType::SimdShaSigma2            0      0.00%     71.18% # Class of executed instruction. (Count)
system.timingCpu1.exec_context.thread_0.statExecutedInstType::SimdShaSigma3            0      0.00%     71.18% # Class of executed instruction. (Count)
system.timingCpu1.exec_context.thread_0.statExecutedInstType::SimdPredAlu            0      0.00%     71.18% # Class of executed instruction. (Count)
system.timingCpu1.exec_context.thread_0.statExecutedInstType::MemRead      5896994      0.27%     71.45% # Class of executed instruction. (Count)
system.timingCpu1.exec_context.thread_0.statExecutedInstType::MemWrite      2054329      0.09%     71.55% # Class of executed instruction. (Count)
system.timingCpu1.exec_context.thread_0.statExecutedInstType::FloatMemRead    499058909     22.81%     94.35% # Class of executed instruction. (Count)
system.timingCpu1.exec_context.thread_0.statExecutedInstType::FloatMemWrite    123628346      5.65%    100.00% # Class of executed instruction. (Count)
system.timingCpu1.exec_context.thread_0.statExecutedInstType::IprAccess            0      0.00%    100.00% # Class of executed instruction. (Count)
system.timingCpu1.exec_context.thread_0.statExecutedInstType::InstPrefetch            0      0.00%    100.00% # Class of executed instruction. (Count)
system.timingCpu1.exec_context.thread_0.statExecutedInstType::total   2188353136                       # Class of executed instruction. (Count)
system.timingCpu1.mmu.dtb.rdAccesses        505094620                       # TLB accesses on read requests (Count)
system.timingCpu1.mmu.dtb.wrAccesses        125697932                       # TLB accesses on write requests (Count)
system.timingCpu1.mmu.dtb.rdMisses             138915                       # TLB misses on read requests (Count)
system.timingCpu1.mmu.dtb.wrMisses              15338                       # TLB misses on write requests (Count)
system.timingCpu1.mmu.dtb.walker.power_state.pwrStateResidencyTicks::UNDEFINED 25963887240500                       # Cumulative time (in ticks) in various power states (Tick)
system.timingCpu1.mmu.itb.rdAccesses                0                       # TLB accesses on read requests (Count)
system.timingCpu1.mmu.itb.wrAccesses       2119163196                       # TLB accesses on write requests (Count)
system.timingCpu1.mmu.itb.rdMisses                  0                       # TLB misses on read requests (Count)
system.timingCpu1.mmu.itb.wrMisses               7789                       # TLB misses on write requests (Count)
system.timingCpu1.mmu.itb.walker.power_state.pwrStateResidencyTicks::UNDEFINED 25963887240500                       # Cumulative time (in ticks) in various power states (Tick)
system.timingCpu1.power_state.numTransitions            6                       # Number of power state transitions (Count)
system.timingCpu1.power_state.ticksClkGated::samples            3                       # Distribution of time spent in the clock gated state (Tick)
system.timingCpu1.power_state.ticksClkGated::mean 475726166.666667                       # Distribution of time spent in the clock gated state (Tick)
system.timingCpu1.power_state.ticksClkGated::stdev 477434212.226298                       # Distribution of time spent in the clock gated state (Tick)
system.timingCpu1.power_state.ticksClkGated::1000-5e+10            3    100.00%    100.00% # Distribution of time spent in the clock gated state (Tick)
system.timingCpu1.power_state.ticksClkGated::min_value     33081250                       # Distribution of time spent in the clock gated state (Tick)
system.timingCpu1.power_state.ticksClkGated::max_value    981640500                       # Distribution of time spent in the clock gated state (Tick)
system.timingCpu1.power_state.ticksClkGated::total            3                       # Distribution of time spent in the clock gated state (Tick)
system.timingCpu1.power_state.pwrStateResidencyTicks::ON 566493143250                       # Cumulative time (in ticks) in various power states (Tick)
system.timingCpu1.power_state.pwrStateResidencyTicks::CLK_GATED   1427178500                       # Cumulative time (in ticks) in various power states (Tick)
system.timingCpu1.power_state.pwrStateResidencyTicks::OFF 25395966918750                       # Cumulative time (in ticks) in various power states (Tick)
system.timingCpu1.thread_0.numInsts                 0                       # Number of Instructions committed (Count)
system.timingCpu1.thread_0.numOps                   0                       # Number of Ops committed (Count)
system.timingCpu1.thread_0.numMemRefs               0                       # Number of Memory References (Count)
system.workload.inst.arm                            0                       # number of arm instructions executed (Count)
system.workload.inst.quiesce                        0                       # number of quiesce instructions executed (Count)

---------- End Simulation Statistics   ----------
