
---------- Begin Simulation Statistics ----------
simSeconds                                   0.001000                       # Number of seconds simulated (Second)
simTicks                                   1000405000                       # Number of ticks simulated (Tick)
finalTick                                  1000405000                       # Number of ticks from beginning of simulation (restored from checkpoints and never reset) (Tick)
simFreq                                  1000000000000                       # The number of ticks per simulated second ((Tick/Second))
hostSeconds                                      9.24                       # Real time elapsed on the host (Second)
hostTickRate                                108268921                       # The number of ticks simulated per host second (ticks/s) ((Tick/Second))
hostMemory                                   17489200                       # Number of bytes of host memory used (Byte)
system.clk_domain.clock                           250                       # Clock period in ticks (Tick)
system.clk_domain.voltage_domain.voltage            1                       # Voltage in Volts (Volt)
system.dcache_ctrl.avgPriority_generator::samples    109185.00                       # Average QoS priority value for accepted requests (Count)
system.dcache_ctrl.priorityMinLatency    0.000002023868                       # per QoS priority minimum request to response latency (Second)
system.dcache_ctrl.priorityMaxLatency    0.000013860372                       # per QoS priority maximum request to response latency (Second)
system.dcache_ctrl.numReadWriteTurnArounds            0                       # Number of turnarounds from READ to WRITE (Count)
system.dcache_ctrl.numWriteReadTurnArounds            0                       # Number of turnarounds from WRITE to READ (Count)
system.dcache_ctrl.numStayReadState                 0                       # Number of times bus staying in READ state (Count)
system.dcache_ctrl.numStayWriteState                0                       # Number of times bus staying in WRITE state (Count)
system.dcache_ctrl.readReqs                         0                       # Number of read requests accepted (Count)
system.dcache_ctrl.writeReqs                        0                       # Number of write requests accepted (Count)
system.dcache_ctrl.readBursts                       0                       # Number of controller read bursts, including those serviced by the write queue (Count)
system.dcache_ctrl.writeBursts                      0                       # Number of controller write bursts, including those merged in the write queue (Count)
system.dcache_ctrl.servicedByWrQ                    0                       # Number of controller read bursts serviced by the write queue (Count)
system.dcache_ctrl.mergedWrBursts                   0                       # Number of controller write bursts merged with an existing one (Count)
system.dcache_ctrl.neitherReadNorWriteReqs            0                       # Number of requests that are neither read nor write (Count)
system.dcache_ctrl.avgRdQLen                     0.00                       # Average read queue length when enqueuing ((Count/Tick))
system.dcache_ctrl.avgWrQLen                     0.00                       # Average write queue length when enqueuing ((Count/Tick))
system.dcache_ctrl.numRdRetry                       0                       # Number of times read queue was full causing retry (Count)
system.dcache_ctrl.numWrRetry                       0                       # Number of times write queue was full causing retry (Count)
system.dcache_ctrl.readPktSize::0                   0                       # Read request sizes (log2) (Count)
system.dcache_ctrl.readPktSize::1                   0                       # Read request sizes (log2) (Count)
system.dcache_ctrl.readPktSize::2                   0                       # Read request sizes (log2) (Count)
system.dcache_ctrl.readPktSize::3                   0                       # Read request sizes (log2) (Count)
system.dcache_ctrl.readPktSize::4                   0                       # Read request sizes (log2) (Count)
system.dcache_ctrl.readPktSize::5                   0                       # Read request sizes (log2) (Count)
system.dcache_ctrl.readPktSize::6                   0                       # Read request sizes (log2) (Count)
system.dcache_ctrl.writePktSize::0                  0                       # Write request sizes (log2) (Count)
system.dcache_ctrl.writePktSize::1                  0                       # Write request sizes (log2) (Count)
system.dcache_ctrl.writePktSize::2                  0                       # Write request sizes (log2) (Count)
system.dcache_ctrl.writePktSize::3                  0                       # Write request sizes (log2) (Count)
system.dcache_ctrl.writePktSize::4                  0                       # Write request sizes (log2) (Count)
system.dcache_ctrl.writePktSize::5                  0                       # Write request sizes (log2) (Count)
system.dcache_ctrl.writePktSize::6                  0                       # Write request sizes (log2) (Count)
system.dcache_ctrl.rdQLenPdf::0                     0                       # What read queue length does an incoming req see (Count)
system.dcache_ctrl.rdQLenPdf::1                     0                       # What read queue length does an incoming req see (Count)
system.dcache_ctrl.rdQLenPdf::2                     0                       # What read queue length does an incoming req see (Count)
system.dcache_ctrl.rdQLenPdf::3                     0                       # What read queue length does an incoming req see (Count)
system.dcache_ctrl.rdQLenPdf::4                     0                       # What read queue length does an incoming req see (Count)
system.dcache_ctrl.rdQLenPdf::5                     0                       # What read queue length does an incoming req see (Count)
system.dcache_ctrl.rdQLenPdf::6                     0                       # What read queue length does an incoming req see (Count)
system.dcache_ctrl.rdQLenPdf::7                     0                       # What read queue length does an incoming req see (Count)
system.dcache_ctrl.rdQLenPdf::8                     0                       # What read queue length does an incoming req see (Count)
system.dcache_ctrl.rdQLenPdf::9                     0                       # What read queue length does an incoming req see (Count)
system.dcache_ctrl.rdQLenPdf::10                    0                       # What read queue length does an incoming req see (Count)
system.dcache_ctrl.rdQLenPdf::11                    0                       # What read queue length does an incoming req see (Count)
system.dcache_ctrl.rdQLenPdf::12                    0                       # What read queue length does an incoming req see (Count)
system.dcache_ctrl.rdQLenPdf::13                    0                       # What read queue length does an incoming req see (Count)
system.dcache_ctrl.rdQLenPdf::14                    0                       # What read queue length does an incoming req see (Count)
system.dcache_ctrl.rdQLenPdf::15                    0                       # What read queue length does an incoming req see (Count)
system.dcache_ctrl.rdQLenPdf::16                    0                       # What read queue length does an incoming req see (Count)
system.dcache_ctrl.rdQLenPdf::17                    0                       # What read queue length does an incoming req see (Count)
system.dcache_ctrl.rdQLenPdf::18                    0                       # What read queue length does an incoming req see (Count)
system.dcache_ctrl.rdQLenPdf::19                    0                       # What read queue length does an incoming req see (Count)
system.dcache_ctrl.rdQLenPdf::20                    0                       # What read queue length does an incoming req see (Count)
system.dcache_ctrl.rdQLenPdf::21                    0                       # What read queue length does an incoming req see (Count)
system.dcache_ctrl.rdQLenPdf::22                    0                       # What read queue length does an incoming req see (Count)
system.dcache_ctrl.rdQLenPdf::23                    0                       # What read queue length does an incoming req see (Count)
system.dcache_ctrl.rdQLenPdf::24                    0                       # What read queue length does an incoming req see (Count)
system.dcache_ctrl.rdQLenPdf::25                    0                       # What read queue length does an incoming req see (Count)
system.dcache_ctrl.rdQLenPdf::26                    0                       # What read queue length does an incoming req see (Count)
system.dcache_ctrl.rdQLenPdf::27                    0                       # What read queue length does an incoming req see (Count)
system.dcache_ctrl.rdQLenPdf::28                    0                       # What read queue length does an incoming req see (Count)
system.dcache_ctrl.rdQLenPdf::29                    0                       # What read queue length does an incoming req see (Count)
system.dcache_ctrl.rdQLenPdf::30                    0                       # What read queue length does an incoming req see (Count)
system.dcache_ctrl.rdQLenPdf::31                    0                       # What read queue length does an incoming req see (Count)
system.dcache_ctrl.rdQLenPdf::32                    0                       # What read queue length does an incoming req see (Count)
system.dcache_ctrl.rdQLenPdf::33                    0                       # What read queue length does an incoming req see (Count)
system.dcache_ctrl.rdQLenPdf::34                    0                       # What read queue length does an incoming req see (Count)
system.dcache_ctrl.rdQLenPdf::35                    0                       # What read queue length does an incoming req see (Count)
system.dcache_ctrl.rdQLenPdf::36                    0                       # What read queue length does an incoming req see (Count)
system.dcache_ctrl.rdQLenPdf::37                    0                       # What read queue length does an incoming req see (Count)
system.dcache_ctrl.rdQLenPdf::38                    0                       # What read queue length does an incoming req see (Count)
system.dcache_ctrl.rdQLenPdf::39                    0                       # What read queue length does an incoming req see (Count)
system.dcache_ctrl.rdQLenPdf::40                    0                       # What read queue length does an incoming req see (Count)
system.dcache_ctrl.rdQLenPdf::41                    0                       # What read queue length does an incoming req see (Count)
system.dcache_ctrl.rdQLenPdf::42                    0                       # What read queue length does an incoming req see (Count)
system.dcache_ctrl.rdQLenPdf::43                    0                       # What read queue length does an incoming req see (Count)
system.dcache_ctrl.rdQLenPdf::44                    0                       # What read queue length does an incoming req see (Count)
system.dcache_ctrl.rdQLenPdf::45                    0                       # What read queue length does an incoming req see (Count)
system.dcache_ctrl.rdQLenPdf::46                    0                       # What read queue length does an incoming req see (Count)
system.dcache_ctrl.rdQLenPdf::47                    0                       # What read queue length does an incoming req see (Count)
system.dcache_ctrl.rdQLenPdf::48                    0                       # What read queue length does an incoming req see (Count)
system.dcache_ctrl.rdQLenPdf::49                    0                       # What read queue length does an incoming req see (Count)
system.dcache_ctrl.rdQLenPdf::50                    0                       # What read queue length does an incoming req see (Count)
system.dcache_ctrl.rdQLenPdf::51                    0                       # What read queue length does an incoming req see (Count)
system.dcache_ctrl.rdQLenPdf::52                    0                       # What read queue length does an incoming req see (Count)
system.dcache_ctrl.rdQLenPdf::53                    0                       # What read queue length does an incoming req see (Count)
system.dcache_ctrl.rdQLenPdf::54                    0                       # What read queue length does an incoming req see (Count)
system.dcache_ctrl.rdQLenPdf::55                    0                       # What read queue length does an incoming req see (Count)
system.dcache_ctrl.rdQLenPdf::56                    0                       # What read queue length does an incoming req see (Count)
system.dcache_ctrl.rdQLenPdf::57                    0                       # What read queue length does an incoming req see (Count)
system.dcache_ctrl.rdQLenPdf::58                    0                       # What read queue length does an incoming req see (Count)
system.dcache_ctrl.rdQLenPdf::59                    0                       # What read queue length does an incoming req see (Count)
system.dcache_ctrl.rdQLenPdf::60                    0                       # What read queue length does an incoming req see (Count)
system.dcache_ctrl.rdQLenPdf::61                    0                       # What read queue length does an incoming req see (Count)
system.dcache_ctrl.rdQLenPdf::62                    0                       # What read queue length does an incoming req see (Count)
system.dcache_ctrl.rdQLenPdf::63                    0                       # What read queue length does an incoming req see (Count)
system.dcache_ctrl.wrQLenPdf::0                     0                       # What write queue length does an incoming req see (Count)
system.dcache_ctrl.wrQLenPdf::1                     0                       # What write queue length does an incoming req see (Count)
system.dcache_ctrl.wrQLenPdf::2                     0                       # What write queue length does an incoming req see (Count)
system.dcache_ctrl.wrQLenPdf::3                     0                       # What write queue length does an incoming req see (Count)
system.dcache_ctrl.wrQLenPdf::4                     0                       # What write queue length does an incoming req see (Count)
system.dcache_ctrl.wrQLenPdf::5                     0                       # What write queue length does an incoming req see (Count)
system.dcache_ctrl.wrQLenPdf::6                     0                       # What write queue length does an incoming req see (Count)
system.dcache_ctrl.wrQLenPdf::7                     0                       # What write queue length does an incoming req see (Count)
system.dcache_ctrl.wrQLenPdf::8                     0                       # What write queue length does an incoming req see (Count)
system.dcache_ctrl.wrQLenPdf::9                     0                       # What write queue length does an incoming req see (Count)
system.dcache_ctrl.wrQLenPdf::10                    0                       # What write queue length does an incoming req see (Count)
system.dcache_ctrl.wrQLenPdf::11                    0                       # What write queue length does an incoming req see (Count)
system.dcache_ctrl.wrQLenPdf::12                    0                       # What write queue length does an incoming req see (Count)
system.dcache_ctrl.wrQLenPdf::13                    0                       # What write queue length does an incoming req see (Count)
system.dcache_ctrl.wrQLenPdf::14                    0                       # What write queue length does an incoming req see (Count)
system.dcache_ctrl.wrQLenPdf::15                    0                       # What write queue length does an incoming req see (Count)
system.dcache_ctrl.wrQLenPdf::16                    0                       # What write queue length does an incoming req see (Count)
system.dcache_ctrl.wrQLenPdf::17                    0                       # What write queue length does an incoming req see (Count)
system.dcache_ctrl.wrQLenPdf::18                    0                       # What write queue length does an incoming req see (Count)
system.dcache_ctrl.wrQLenPdf::19                    0                       # What write queue length does an incoming req see (Count)
system.dcache_ctrl.wrQLenPdf::20                    0                       # What write queue length does an incoming req see (Count)
system.dcache_ctrl.wrQLenPdf::21                    0                       # What write queue length does an incoming req see (Count)
system.dcache_ctrl.wrQLenPdf::22                    0                       # What write queue length does an incoming req see (Count)
system.dcache_ctrl.wrQLenPdf::23                    0                       # What write queue length does an incoming req see (Count)
system.dcache_ctrl.wrQLenPdf::24                    0                       # What write queue length does an incoming req see (Count)
system.dcache_ctrl.wrQLenPdf::25                    0                       # What write queue length does an incoming req see (Count)
system.dcache_ctrl.wrQLenPdf::26                    0                       # What write queue length does an incoming req see (Count)
system.dcache_ctrl.wrQLenPdf::27                    0                       # What write queue length does an incoming req see (Count)
system.dcache_ctrl.wrQLenPdf::28                    0                       # What write queue length does an incoming req see (Count)
system.dcache_ctrl.wrQLenPdf::29                    0                       # What write queue length does an incoming req see (Count)
system.dcache_ctrl.wrQLenPdf::30                    0                       # What write queue length does an incoming req see (Count)
system.dcache_ctrl.wrQLenPdf::31                    0                       # What write queue length does an incoming req see (Count)
system.dcache_ctrl.wrQLenPdf::32                    0                       # What write queue length does an incoming req see (Count)
system.dcache_ctrl.wrQLenPdf::33                    0                       # What write queue length does an incoming req see (Count)
system.dcache_ctrl.wrQLenPdf::34                    0                       # What write queue length does an incoming req see (Count)
system.dcache_ctrl.wrQLenPdf::35                    0                       # What write queue length does an incoming req see (Count)
system.dcache_ctrl.wrQLenPdf::36                    0                       # What write queue length does an incoming req see (Count)
system.dcache_ctrl.wrQLenPdf::37                    0                       # What write queue length does an incoming req see (Count)
system.dcache_ctrl.wrQLenPdf::38                    0                       # What write queue length does an incoming req see (Count)
system.dcache_ctrl.wrQLenPdf::39                    0                       # What write queue length does an incoming req see (Count)
system.dcache_ctrl.wrQLenPdf::40                    0                       # What write queue length does an incoming req see (Count)
system.dcache_ctrl.wrQLenPdf::41                    0                       # What write queue length does an incoming req see (Count)
system.dcache_ctrl.wrQLenPdf::42                    0                       # What write queue length does an incoming req see (Count)
system.dcache_ctrl.wrQLenPdf::43                    0                       # What write queue length does an incoming req see (Count)
system.dcache_ctrl.wrQLenPdf::44                    0                       # What write queue length does an incoming req see (Count)
system.dcache_ctrl.wrQLenPdf::45                    0                       # What write queue length does an incoming req see (Count)
system.dcache_ctrl.wrQLenPdf::46                    0                       # What write queue length does an incoming req see (Count)
system.dcache_ctrl.wrQLenPdf::47                    0                       # What write queue length does an incoming req see (Count)
system.dcache_ctrl.wrQLenPdf::48                    0                       # What write queue length does an incoming req see (Count)
system.dcache_ctrl.wrQLenPdf::49                    0                       # What write queue length does an incoming req see (Count)
system.dcache_ctrl.wrQLenPdf::50                    0                       # What write queue length does an incoming req see (Count)
system.dcache_ctrl.wrQLenPdf::51                    0                       # What write queue length does an incoming req see (Count)
system.dcache_ctrl.wrQLenPdf::52                    0                       # What write queue length does an incoming req see (Count)
system.dcache_ctrl.wrQLenPdf::53                    0                       # What write queue length does an incoming req see (Count)
system.dcache_ctrl.wrQLenPdf::54                    0                       # What write queue length does an incoming req see (Count)
system.dcache_ctrl.wrQLenPdf::55                    0                       # What write queue length does an incoming req see (Count)
system.dcache_ctrl.wrQLenPdf::56                    0                       # What write queue length does an incoming req see (Count)
system.dcache_ctrl.wrQLenPdf::57                    0                       # What write queue length does an incoming req see (Count)
system.dcache_ctrl.wrQLenPdf::58                    0                       # What write queue length does an incoming req see (Count)
system.dcache_ctrl.wrQLenPdf::59                    0                       # What write queue length does an incoming req see (Count)
system.dcache_ctrl.wrQLenPdf::60                    0                       # What write queue length does an incoming req see (Count)
system.dcache_ctrl.wrQLenPdf::61                    0                       # What write queue length does an incoming req see (Count)
system.dcache_ctrl.wrQLenPdf::62                    0                       # What write queue length does an incoming req see (Count)
system.dcache_ctrl.wrQLenPdf::63                    0                       # What write queue length does an incoming req see (Count)
system.dcache_ctrl.bytesReadWrQ                     0                       # Total number of bytes read from write queue (Byte)
system.dcache_ctrl.bytesReadSys                     0                       # Total read bytes from the system interface side (Byte)
system.dcache_ctrl.bytesWrittenSys                  0                       # Total written bytes from the system interface side (Byte)
system.dcache_ctrl.avgRdBWSys              0.00000000                       # Average system read bandwidth in Byte/s ((Byte/Second))
system.dcache_ctrl.avgWrBWSys              0.00000000                       # Average system write bandwidth in Byte/s ((Byte/Second))
system.dcache_ctrl.totGap                           0                       # Total gap between requests (Tick)
system.dcache_ctrl.avgGap                         nan                       # Average gap between requests ((Tick/Count))
system.dcache_ctrl.requestorReadBytes::generator      6977024                       # Per-requestor bytes read from memory (Byte)
system.dcache_ctrl.requestorWriteBytes::generator      6955072                       # Per-requestor bytes write to memory (Byte)
system.dcache_ctrl.requestorReadRate::generator 6974199449.223064422607                       # Per-requestor bytes read from memory rate ((Byte/Second))
system.dcache_ctrl.requestorWriteRate::generator 6952256336.183845520020                       # Per-requestor bytes write to memory rate ((Byte/Second))
system.dcache_ctrl.requestorReadTotalLat::generator 250517508560                       # Per-requestor read total memory access latency (Tick)
system.dcache_ctrl.requestorWriteTotalLat::generator 514733492560                       # Per-requestor write total memory access latency (Tick)
system.dcache_ctrl.requestorReadAvgLat::generator          inf                       # Per-requestor read average memory access latency ((Tick/Count))
system.dcache_ctrl.requestorWriteAvgLat::generator          inf                       # Per-requestor write average memory access latency ((Tick/Count))
system.dcache_ctrl.readReqs                    109185                       # Number of read requests accepted (Count)
system.dcache_ctrl.writeReqs                        0                       # Number of write requests accepted (Count)
system.dcache_ctrl.readBursts                  109185                       # Number of controller read bursts, including those serviced by the write queue (Count)
system.dcache_ctrl.writeBursts                      0                       # Number of controller write bursts, including those merged in the write queue (Count)
system.dcache_ctrl.servicedByWrQ                    0                       # Number of controller read bursts serviced by the write queue (Count)
system.dcache_ctrl.mergedWrBursts                   0                       # Number of controller write bursts merged with an existing one (Count)
system.dcache_ctrl.neitherReadNorWriteReqs            0                       # Number of requests that are neither read nor write (Count)
system.dcache_ctrl.avgRdQLen                     0.00                       # Average read queue length when enqueuing ((Count/Tick))
system.dcache_ctrl.avgWrQLen                     0.00                       # Average write queue length when enqueuing ((Count/Tick))
system.dcache_ctrl.numRdRetry                  107418                       # Number of times read queue was full causing retry (Count)
system.dcache_ctrl.numWrRetry                       0                       # Number of times write queue was full causing retry (Count)
system.dcache_ctrl.readPktSize::0                   0                       # Read request sizes (log2) (Count)
system.dcache_ctrl.readPktSize::1                   0                       # Read request sizes (log2) (Count)
system.dcache_ctrl.readPktSize::2                   0                       # Read request sizes (log2) (Count)
system.dcache_ctrl.readPktSize::3                   0                       # Read request sizes (log2) (Count)
system.dcache_ctrl.readPktSize::4                   0                       # Read request sizes (log2) (Count)
system.dcache_ctrl.readPktSize::5              109185                       # Read request sizes (log2) (Count)
system.dcache_ctrl.readPktSize::6                   0                       # Read request sizes (log2) (Count)
system.dcache_ctrl.writePktSize::0                  0                       # Write request sizes (log2) (Count)
system.dcache_ctrl.writePktSize::1                  0                       # Write request sizes (log2) (Count)
system.dcache_ctrl.writePktSize::2                  0                       # Write request sizes (log2) (Count)
system.dcache_ctrl.writePktSize::3                  0                       # Write request sizes (log2) (Count)
system.dcache_ctrl.writePktSize::4                  0                       # Write request sizes (log2) (Count)
system.dcache_ctrl.writePktSize::5                  0                       # Write request sizes (log2) (Count)
system.dcache_ctrl.writePktSize::6                  0                       # Write request sizes (log2) (Count)
system.dcache_ctrl.rdQLenPdf::0                     0                       # What read queue length does an incoming req see (Count)
system.dcache_ctrl.rdQLenPdf::1                     0                       # What read queue length does an incoming req see (Count)
system.dcache_ctrl.rdQLenPdf::2                     0                       # What read queue length does an incoming req see (Count)
system.dcache_ctrl.rdQLenPdf::3                     0                       # What read queue length does an incoming req see (Count)
system.dcache_ctrl.rdQLenPdf::4                     0                       # What read queue length does an incoming req see (Count)
system.dcache_ctrl.rdQLenPdf::5                     0                       # What read queue length does an incoming req see (Count)
system.dcache_ctrl.rdQLenPdf::6                     0                       # What read queue length does an incoming req see (Count)
system.dcache_ctrl.rdQLenPdf::7                     0                       # What read queue length does an incoming req see (Count)
system.dcache_ctrl.rdQLenPdf::8                     0                       # What read queue length does an incoming req see (Count)
system.dcache_ctrl.rdQLenPdf::9                     0                       # What read queue length does an incoming req see (Count)
system.dcache_ctrl.rdQLenPdf::10                    0                       # What read queue length does an incoming req see (Count)
system.dcache_ctrl.rdQLenPdf::11                    0                       # What read queue length does an incoming req see (Count)
system.dcache_ctrl.rdQLenPdf::12                    0                       # What read queue length does an incoming req see (Count)
system.dcache_ctrl.rdQLenPdf::13                    0                       # What read queue length does an incoming req see (Count)
system.dcache_ctrl.rdQLenPdf::14                    0                       # What read queue length does an incoming req see (Count)
system.dcache_ctrl.rdQLenPdf::15                    0                       # What read queue length does an incoming req see (Count)
system.dcache_ctrl.rdQLenPdf::16                    0                       # What read queue length does an incoming req see (Count)
system.dcache_ctrl.rdQLenPdf::17                    0                       # What read queue length does an incoming req see (Count)
system.dcache_ctrl.rdQLenPdf::18                    0                       # What read queue length does an incoming req see (Count)
system.dcache_ctrl.rdQLenPdf::19                    0                       # What read queue length does an incoming req see (Count)
system.dcache_ctrl.rdQLenPdf::20                    0                       # What read queue length does an incoming req see (Count)
system.dcache_ctrl.rdQLenPdf::21                    0                       # What read queue length does an incoming req see (Count)
system.dcache_ctrl.rdQLenPdf::22                    0                       # What read queue length does an incoming req see (Count)
system.dcache_ctrl.rdQLenPdf::23                    0                       # What read queue length does an incoming req see (Count)
system.dcache_ctrl.rdQLenPdf::24                    0                       # What read queue length does an incoming req see (Count)
system.dcache_ctrl.rdQLenPdf::25                    0                       # What read queue length does an incoming req see (Count)
system.dcache_ctrl.rdQLenPdf::26                    0                       # What read queue length does an incoming req see (Count)
system.dcache_ctrl.rdQLenPdf::27                    0                       # What read queue length does an incoming req see (Count)
system.dcache_ctrl.rdQLenPdf::28                    0                       # What read queue length does an incoming req see (Count)
system.dcache_ctrl.rdQLenPdf::29                    0                       # What read queue length does an incoming req see (Count)
system.dcache_ctrl.rdQLenPdf::30                    0                       # What read queue length does an incoming req see (Count)
system.dcache_ctrl.rdQLenPdf::31                    0                       # What read queue length does an incoming req see (Count)
system.dcache_ctrl.rdQLenPdf::32                    0                       # What read queue length does an incoming req see (Count)
system.dcache_ctrl.rdQLenPdf::33                    0                       # What read queue length does an incoming req see (Count)
system.dcache_ctrl.rdQLenPdf::34                    0                       # What read queue length does an incoming req see (Count)
system.dcache_ctrl.rdQLenPdf::35                    0                       # What read queue length does an incoming req see (Count)
system.dcache_ctrl.rdQLenPdf::36                    0                       # What read queue length does an incoming req see (Count)
system.dcache_ctrl.rdQLenPdf::37                    0                       # What read queue length does an incoming req see (Count)
system.dcache_ctrl.rdQLenPdf::38                    0                       # What read queue length does an incoming req see (Count)
system.dcache_ctrl.rdQLenPdf::39                    0                       # What read queue length does an incoming req see (Count)
system.dcache_ctrl.rdQLenPdf::40                    0                       # What read queue length does an incoming req see (Count)
system.dcache_ctrl.rdQLenPdf::41                    0                       # What read queue length does an incoming req see (Count)
system.dcache_ctrl.rdQLenPdf::42                    0                       # What read queue length does an incoming req see (Count)
system.dcache_ctrl.rdQLenPdf::43                    0                       # What read queue length does an incoming req see (Count)
system.dcache_ctrl.rdQLenPdf::44                    0                       # What read queue length does an incoming req see (Count)
system.dcache_ctrl.rdQLenPdf::45                    0                       # What read queue length does an incoming req see (Count)
system.dcache_ctrl.rdQLenPdf::46                    0                       # What read queue length does an incoming req see (Count)
system.dcache_ctrl.rdQLenPdf::47                    0                       # What read queue length does an incoming req see (Count)
system.dcache_ctrl.rdQLenPdf::48                    0                       # What read queue length does an incoming req see (Count)
system.dcache_ctrl.rdQLenPdf::49                    0                       # What read queue length does an incoming req see (Count)
system.dcache_ctrl.rdQLenPdf::50                    0                       # What read queue length does an incoming req see (Count)
system.dcache_ctrl.rdQLenPdf::51                    0                       # What read queue length does an incoming req see (Count)
system.dcache_ctrl.rdQLenPdf::52                    0                       # What read queue length does an incoming req see (Count)
system.dcache_ctrl.rdQLenPdf::53                    0                       # What read queue length does an incoming req see (Count)
system.dcache_ctrl.rdQLenPdf::54                    0                       # What read queue length does an incoming req see (Count)
system.dcache_ctrl.rdQLenPdf::55                    0                       # What read queue length does an incoming req see (Count)
system.dcache_ctrl.rdQLenPdf::56                    0                       # What read queue length does an incoming req see (Count)
system.dcache_ctrl.rdQLenPdf::57                    0                       # What read queue length does an incoming req see (Count)
system.dcache_ctrl.rdQLenPdf::58                    0                       # What read queue length does an incoming req see (Count)
system.dcache_ctrl.rdQLenPdf::59                    0                       # What read queue length does an incoming req see (Count)
system.dcache_ctrl.rdQLenPdf::60                    0                       # What read queue length does an incoming req see (Count)
system.dcache_ctrl.rdQLenPdf::61                    0                       # What read queue length does an incoming req see (Count)
system.dcache_ctrl.rdQLenPdf::62                    0                       # What read queue length does an incoming req see (Count)
system.dcache_ctrl.rdQLenPdf::63                    0                       # What read queue length does an incoming req see (Count)
system.dcache_ctrl.wrQLenPdf::0                     0                       # What write queue length does an incoming req see (Count)
system.dcache_ctrl.wrQLenPdf::1                     0                       # What write queue length does an incoming req see (Count)
system.dcache_ctrl.wrQLenPdf::2                     0                       # What write queue length does an incoming req see (Count)
system.dcache_ctrl.wrQLenPdf::3                     0                       # What write queue length does an incoming req see (Count)
system.dcache_ctrl.wrQLenPdf::4                     0                       # What write queue length does an incoming req see (Count)
system.dcache_ctrl.wrQLenPdf::5                     0                       # What write queue length does an incoming req see (Count)
system.dcache_ctrl.wrQLenPdf::6                     0                       # What write queue length does an incoming req see (Count)
system.dcache_ctrl.wrQLenPdf::7                     0                       # What write queue length does an incoming req see (Count)
system.dcache_ctrl.wrQLenPdf::8                     0                       # What write queue length does an incoming req see (Count)
system.dcache_ctrl.wrQLenPdf::9                     0                       # What write queue length does an incoming req see (Count)
system.dcache_ctrl.wrQLenPdf::10                    0                       # What write queue length does an incoming req see (Count)
system.dcache_ctrl.wrQLenPdf::11                    0                       # What write queue length does an incoming req see (Count)
system.dcache_ctrl.wrQLenPdf::12                    0                       # What write queue length does an incoming req see (Count)
system.dcache_ctrl.wrQLenPdf::13                    0                       # What write queue length does an incoming req see (Count)
system.dcache_ctrl.wrQLenPdf::14                    0                       # What write queue length does an incoming req see (Count)
system.dcache_ctrl.wrQLenPdf::15                    0                       # What write queue length does an incoming req see (Count)
system.dcache_ctrl.wrQLenPdf::16                    0                       # What write queue length does an incoming req see (Count)
system.dcache_ctrl.wrQLenPdf::17                    0                       # What write queue length does an incoming req see (Count)
system.dcache_ctrl.wrQLenPdf::18                    0                       # What write queue length does an incoming req see (Count)
system.dcache_ctrl.wrQLenPdf::19                    0                       # What write queue length does an incoming req see (Count)
system.dcache_ctrl.wrQLenPdf::20                    0                       # What write queue length does an incoming req see (Count)
system.dcache_ctrl.wrQLenPdf::21                    0                       # What write queue length does an incoming req see (Count)
system.dcache_ctrl.wrQLenPdf::22                    0                       # What write queue length does an incoming req see (Count)
system.dcache_ctrl.wrQLenPdf::23                    0                       # What write queue length does an incoming req see (Count)
system.dcache_ctrl.wrQLenPdf::24                    0                       # What write queue length does an incoming req see (Count)
system.dcache_ctrl.wrQLenPdf::25                    0                       # What write queue length does an incoming req see (Count)
system.dcache_ctrl.wrQLenPdf::26                    0                       # What write queue length does an incoming req see (Count)
system.dcache_ctrl.wrQLenPdf::27                    0                       # What write queue length does an incoming req see (Count)
system.dcache_ctrl.wrQLenPdf::28                    0                       # What write queue length does an incoming req see (Count)
system.dcache_ctrl.wrQLenPdf::29                    0                       # What write queue length does an incoming req see (Count)
system.dcache_ctrl.wrQLenPdf::30                    0                       # What write queue length does an incoming req see (Count)
system.dcache_ctrl.wrQLenPdf::31                    0                       # What write queue length does an incoming req see (Count)
system.dcache_ctrl.wrQLenPdf::32                    0                       # What write queue length does an incoming req see (Count)
system.dcache_ctrl.wrQLenPdf::33                    0                       # What write queue length does an incoming req see (Count)
system.dcache_ctrl.wrQLenPdf::34                    0                       # What write queue length does an incoming req see (Count)
system.dcache_ctrl.wrQLenPdf::35                    0                       # What write queue length does an incoming req see (Count)
system.dcache_ctrl.wrQLenPdf::36                    0                       # What write queue length does an incoming req see (Count)
system.dcache_ctrl.wrQLenPdf::37                    0                       # What write queue length does an incoming req see (Count)
system.dcache_ctrl.wrQLenPdf::38                    0                       # What write queue length does an incoming req see (Count)
system.dcache_ctrl.wrQLenPdf::39                    0                       # What write queue length does an incoming req see (Count)
system.dcache_ctrl.wrQLenPdf::40                    0                       # What write queue length does an incoming req see (Count)
system.dcache_ctrl.wrQLenPdf::41                    0                       # What write queue length does an incoming req see (Count)
system.dcache_ctrl.wrQLenPdf::42                    0                       # What write queue length does an incoming req see (Count)
system.dcache_ctrl.wrQLenPdf::43                    0                       # What write queue length does an incoming req see (Count)
system.dcache_ctrl.wrQLenPdf::44                    0                       # What write queue length does an incoming req see (Count)
system.dcache_ctrl.wrQLenPdf::45                    0                       # What write queue length does an incoming req see (Count)
system.dcache_ctrl.wrQLenPdf::46                    0                       # What write queue length does an incoming req see (Count)
system.dcache_ctrl.wrQLenPdf::47                    0                       # What write queue length does an incoming req see (Count)
system.dcache_ctrl.wrQLenPdf::48                    0                       # What write queue length does an incoming req see (Count)
system.dcache_ctrl.wrQLenPdf::49                    0                       # What write queue length does an incoming req see (Count)
system.dcache_ctrl.wrQLenPdf::50                    0                       # What write queue length does an incoming req see (Count)
system.dcache_ctrl.wrQLenPdf::51                    0                       # What write queue length does an incoming req see (Count)
system.dcache_ctrl.wrQLenPdf::52                    0                       # What write queue length does an incoming req see (Count)
system.dcache_ctrl.wrQLenPdf::53                    0                       # What write queue length does an incoming req see (Count)
system.dcache_ctrl.wrQLenPdf::54                    0                       # What write queue length does an incoming req see (Count)
system.dcache_ctrl.wrQLenPdf::55                    0                       # What write queue length does an incoming req see (Count)
system.dcache_ctrl.wrQLenPdf::56                    0                       # What write queue length does an incoming req see (Count)
system.dcache_ctrl.wrQLenPdf::57                    0                       # What write queue length does an incoming req see (Count)
system.dcache_ctrl.wrQLenPdf::58                    0                       # What write queue length does an incoming req see (Count)
system.dcache_ctrl.wrQLenPdf::59                    0                       # What write queue length does an incoming req see (Count)
system.dcache_ctrl.wrQLenPdf::60                    0                       # What write queue length does an incoming req see (Count)
system.dcache_ctrl.wrQLenPdf::61                    0                       # What write queue length does an incoming req see (Count)
system.dcache_ctrl.wrQLenPdf::62                    0                       # What write queue length does an incoming req see (Count)
system.dcache_ctrl.wrQLenPdf::63                    0                       # What write queue length does an incoming req see (Count)
system.dcache_ctrl.bytesReadWrQ                     0                       # Total number of bytes read from write queue (Byte)
system.dcache_ctrl.bytesReadSys                     0                       # Total read bytes from the system interface side (Byte)
system.dcache_ctrl.bytesWrittenSys                  0                       # Total written bytes from the system interface side (Byte)
system.dcache_ctrl.avgRdBWSys              0.00000000                       # Average system read bandwidth in Byte/s ((Byte/Second))
system.dcache_ctrl.avgWrBWSys              0.00000000                       # Average system write bandwidth in Byte/s ((Byte/Second))
system.dcache_ctrl.totGap                  1000404000                       # Total gap between requests (Tick)
system.dcache_ctrl.avgGap                     9162.47                       # Average gap between requests ((Tick/Count))
system.dcache_ctrl.requestorReadAccesses::generator       109185                       # Per-requestor read serviced memory accesses (Count)
system.dcache_ctrl.requestorReadAvgLat::generator         0.00                       # Per-requestor read average memory access latency ((Tick/Count))
system.dcache_ctrl.numWrBacks                  109005                       # Total number of write backs from DRAM cache to main memory (Unspecified)
system.dcache_ctrl.totNumConf                       5                       # Total number of packets conflicted on DRAM cache (Unspecified)
system.dcache_ctrl.totNumConfBufFull                0                       # Total number of packets conflicted yet couldn't enter confBuffer (Unspecified)
system.dcache_ctrl.maxNumConf                       1                       # Maximum number of packets conflicted on DRAM cache (Unspecified)
system.dcache_ctrl.maxLocRdEvQ                    381                       # Maximum number of packets in locMemReadEvent concurrently (Unspecified)
system.dcache_ctrl.maxLocRdRespEvQ                 15                       # Maximum number of packets in locMemReadRespEvent concurrently (Unspecified)
system.dcache_ctrl.maxLocWrEvQ                    316                       # Maximum number of packets in locMemRWriteEvent concurrently (Unspecified)
system.dcache_ctrl.maxFarRdEvQ                    272                       # Maximum number of packets in farMemReadEvent concurrently (Unspecified)
system.dcache_ctrl.maxFarRdRespEvQ                  0                       # Maximum number of packets in farMemReadRespEvent concurrently (Unspecified)
system.dcache_ctrl.maxFarWrEvQ                    307                       # Maximum number of packets in farMemWriteEvent concurrently (Unspecified)
system.dcache_ctrl.rdToWrTurnAround               849                       # Maximum number of packets in farMemReadRespEvent concurrently (Unspecified)
system.dcache_ctrl.wrToRdTurnAround               848                       # Maximum number of packets in farMemWriteEvent concurrently (Unspecified)
system.dcache_ctrl.sentRdPort                  108998                       # Number of read packets successfully sent through the request port to the far memory. (Unspecified)
system.dcache_ctrl.failedRdPort                 18354                       # Number of read packets failed to be sent through the request port to the far memory. (Unspecified)
system.dcache_ctrl.sentWrPort                  108962                       # Number of write packets successfully sent through the request port to the far memory. (Unspecified)
system.dcache_ctrl.failedWrPort                 41920                       # Number of write packets failed to be sent through the request port to the far memory. (Unspecified)
system.dcache_ctrl.totPktsServiceTime       514733226                       # Number of write packets failed to be sent through the request port to the far memory. (Unspecified)
system.dcache_ctrl.dram.readBursts             109016                       # Number of DRAM read bursts (Count)
system.dcache_ctrl.dram.writeBursts            108673                       # Number of DRAM write bursts (Count)
system.dcache_ctrl.dram.perBankRdBursts::0         6825                       # Per bank write bursts (Count)
system.dcache_ctrl.dram.perBankRdBursts::1         6832                       # Per bank write bursts (Count)
system.dcache_ctrl.dram.perBankRdBursts::2         6724                       # Per bank write bursts (Count)
system.dcache_ctrl.dram.perBankRdBursts::3         7009                       # Per bank write bursts (Count)
system.dcache_ctrl.dram.perBankRdBursts::4         6775                       # Per bank write bursts (Count)
system.dcache_ctrl.dram.perBankRdBursts::5         6901                       # Per bank write bursts (Count)
system.dcache_ctrl.dram.perBankRdBursts::6         6721                       # Per bank write bursts (Count)
system.dcache_ctrl.dram.perBankRdBursts::7         6936                       # Per bank write bursts (Count)
system.dcache_ctrl.dram.perBankRdBursts::8         6781                       # Per bank write bursts (Count)
system.dcache_ctrl.dram.perBankRdBursts::9         6826                       # Per bank write bursts (Count)
system.dcache_ctrl.dram.perBankRdBursts::10         6836                       # Per bank write bursts (Count)
system.dcache_ctrl.dram.perBankRdBursts::11         6752                       # Per bank write bursts (Count)
system.dcache_ctrl.dram.perBankRdBursts::12         6748                       # Per bank write bursts (Count)
system.dcache_ctrl.dram.perBankRdBursts::13         6780                       # Per bank write bursts (Count)
system.dcache_ctrl.dram.perBankRdBursts::14         6709                       # Per bank write bursts (Count)
system.dcache_ctrl.dram.perBankRdBursts::15         6861                       # Per bank write bursts (Count)
system.dcache_ctrl.dram.perBankWrBursts::0         6801                       # Per bank write bursts (Count)
system.dcache_ctrl.dram.perBankWrBursts::1         6801                       # Per bank write bursts (Count)
system.dcache_ctrl.dram.perBankWrBursts::2         6704                       # Per bank write bursts (Count)
system.dcache_ctrl.dram.perBankWrBursts::3         6992                       # Per bank write bursts (Count)
system.dcache_ctrl.dram.perBankWrBursts::4         6758                       # Per bank write bursts (Count)
system.dcache_ctrl.dram.perBankWrBursts::5         6878                       # Per bank write bursts (Count)
system.dcache_ctrl.dram.perBankWrBursts::6         6699                       # Per bank write bursts (Count)
system.dcache_ctrl.dram.perBankWrBursts::7         6920                       # Per bank write bursts (Count)
system.dcache_ctrl.dram.perBankWrBursts::8         6756                       # Per bank write bursts (Count)
system.dcache_ctrl.dram.perBankWrBursts::9         6810                       # Per bank write bursts (Count)
system.dcache_ctrl.dram.perBankWrBursts::10         6808                       # Per bank write bursts (Count)
system.dcache_ctrl.dram.perBankWrBursts::11         6731                       # Per bank write bursts (Count)
system.dcache_ctrl.dram.perBankWrBursts::12         6727                       # Per bank write bursts (Count)
system.dcache_ctrl.dram.perBankWrBursts::13         6751                       # Per bank write bursts (Count)
system.dcache_ctrl.dram.perBankWrBursts::14         6698                       # Per bank write bursts (Count)
system.dcache_ctrl.dram.perBankWrBursts::15         6839                       # Per bank write bursts (Count)
system.dcache_ctrl.dram.totQLat          248337188560                       # Total ticks spent queuing (Tick)
system.dcache_ctrl.dram.totBusLat           218032000                       # Total ticks spent in databus transfers (Tick)
system.dcache_ctrl.dram.totMemAccLat     250517508560                       # Total ticks spent from burst creation until serviced by the DRAM (Tick)
system.dcache_ctrl.dram.avgQLat            2277988.45                       # Average queueing delay per DRAM burst ((Tick/Count))
system.dcache_ctrl.dram.avgBusLat             2000.00                       # Average bus latency per DRAM burst ((Tick/Count))
system.dcache_ctrl.dram.avgMemAccLat       2297988.45                       # Average memory access latency per DRAM burst ((Tick/Count))
system.dcache_ctrl.dram.readRowHits                 0                       # Number of row buffer hits during reads (Count)
system.dcache_ctrl.dram.writeRowHits                0                       # Number of row buffer hits during writes (Count)
system.dcache_ctrl.dram.readRowHitRate           0.00                       # Row buffer hit rate for reads (Ratio)
system.dcache_ctrl.dram.writeRowHitRate          0.00                       # Row buffer hit rate for writes (Ratio)
system.dcache_ctrl.dram.bytesPerActivate::samples       217689                       # Bytes accessed per row activation (Byte)
system.dcache_ctrl.dram.bytesPerActivate::mean           32                       # Bytes accessed per row activation (Byte)
system.dcache_ctrl.dram.bytesPerActivate::gmean    32.000000                       # Bytes accessed per row activation (Byte)
system.dcache_ctrl.dram.bytesPerActivate::32-35       217689    100.00%    100.00% # Bytes accessed per row activation (Byte)
system.dcache_ctrl.dram.bytesPerActivate::total       217689                       # Bytes accessed per row activation (Byte)
system.dcache_ctrl.dram.bytesRead             3488512                       # Total bytes read (Byte)
system.dcache_ctrl.dram.bytesWritten          3477536                       # Total bytes written (Byte)
system.dcache_ctrl.dram.avgRdBW           3487.099725                       # Average DRAM read bandwidth in MiBytes/s ((Byte/Second))
system.dcache_ctrl.dram.avgWrBW           3476.128168                       # Average DRAM write bandwidth in MiBytes/s ((Byte/Second))
system.dcache_ctrl.dram.peakBW               16000.00                       # Theoretical peak bandwidth in MiByte/s ((Byte/Second))
system.dcache_ctrl.dram.busUtil                 43.52                       # Data bus utilization in percentage (Ratio)
system.dcache_ctrl.dram.busUtilRead             21.79                       # Data bus utilization in percentage for reads (Ratio)
system.dcache_ctrl.dram.busUtilWrite            21.73                       # Data bus utilization in percentage for writes (Ratio)
system.dcache_ctrl.dram.pageHitRate              0.00                       # Row buffer hit rate, read and write combined (Ratio)
system.dcache_ctrl.dram.power_state.pwrStateResidencyTicks::UNDEFINED   1000405000                       # Cumulative time (in ticks) in various power states (Tick)
system.dcache_ctrl.dram.rank0.actEnergy             0                       # Energy for activate commands per rank (pJ) (Joule)
system.dcache_ctrl.dram.rank0.preEnergy             0                       # Energy for precharge commands per rank (pJ) (Joule)
system.dcache_ctrl.dram.rank0.readEnergy            0                       # Energy for read commands per rank (pJ) (Joule)
system.dcache_ctrl.dram.rank0.writeEnergy            0                       # Energy for write commands per rank (pJ) (Joule)
system.dcache_ctrl.dram.rank0.refreshEnergy            0                       # Energy for refresh commands per rank (pJ) (Joule)
system.dcache_ctrl.dram.rank0.actBackEnergy            0                       # Energy for active background per rank (pJ) (Joule)
system.dcache_ctrl.dram.rank0.preBackEnergy            0                       # Energy for precharge background per rank (pJ) (Joule)
system.dcache_ctrl.dram.rank0.actPowerDownEnergy            0                       # Energy for active power-down per rank (pJ) (Joule)
system.dcache_ctrl.dram.rank0.prePowerDownEnergy            0                       # Energy for precharge power-down per rank (pJ) (Joule)
system.dcache_ctrl.dram.rank0.selfRefreshEnergy            0                       # Energy for self refresh per rank (pJ) (Joule)
system.dcache_ctrl.dram.rank0.totalEnergy            0                       # Total energy per rank (pJ) (Joule)
system.dcache_ctrl.dram.rank0.averagePower            0                       # Core power per rank (mW) (Watt)
system.dcache_ctrl.dram.rank0.totalIdleTime            0                       # Total Idle time Per DRAM Rank (Tick)
system.dcache_ctrl.dram.rank0.pwrStateTime::IDLE     51998000                       # Time in different power states (Tick)
system.dcache_ctrl.dram.rank0.pwrStateTime::REF     56540000                       # Time in different power states (Tick)
system.dcache_ctrl.dram.rank0.pwrStateTime::SREF            0                       # Time in different power states (Tick)
system.dcache_ctrl.dram.rank0.pwrStateTime::PRE_PDN            0                       # Time in different power states (Tick)
system.dcache_ctrl.dram.rank0.pwrStateTime::ACT    891867000                       # Time in different power states (Tick)
system.dcache_ctrl.dram.rank0.pwrStateTime::ACT_PDN            0                       # Time in different power states (Tick)
system.dcache_ctrl.far_memory.bytesRead::generator     13943168                       # Number of bytes read from this memory (Byte)
system.dcache_ctrl.far_memory.bytesRead::total     13943168                       # Number of bytes read from this memory (Byte)
system.dcache_ctrl.far_memory.bytesWritten::writebacks      6973568                       # Number of bytes written to this memory (Byte)
system.dcache_ctrl.far_memory.bytesWritten::total      6973568                       # Number of bytes written to this memory (Byte)
system.dcache_ctrl.far_memory.numReads::generator       217862                       # Number of read requests responded to by this memory (Count)
system.dcache_ctrl.far_memory.numReads::total       217862                       # Number of read requests responded to by this memory (Count)
system.dcache_ctrl.far_memory.numWrites::writebacks       108962                       # Number of write requests responded to by this memory (Count)
system.dcache_ctrl.far_memory.numWrites::total       108962                       # Number of write requests responded to by this memory (Count)
system.dcache_ctrl.far_memory.bwRead::generator  13937523303                       # Total read bandwidth from this memory ((Byte/Second))
system.dcache_ctrl.far_memory.bwRead::total  13937523303                       # Total read bandwidth from this memory ((Byte/Second))
system.dcache_ctrl.far_memory.bwWrite::writebacks   6970744848                       # Write bandwidth from this memory ((Byte/Second))
system.dcache_ctrl.far_memory.bwWrite::total   6970744848                       # Write bandwidth from this memory ((Byte/Second))
system.dcache_ctrl.far_memory.bwTotal::writebacks   6970744848                       # Total bandwidth to/from this memory ((Byte/Second))
system.dcache_ctrl.far_memory.bwTotal::generator  13937523303                       # Total bandwidth to/from this memory ((Byte/Second))
system.dcache_ctrl.far_memory.bwTotal::total  20908268151                       # Total bandwidth to/from this memory ((Byte/Second))
system.dcache_ctrl.far_memory.readBursts       108801                       # Number of DRAM read bursts (Count)
system.dcache_ctrl.far_memory.writeBursts       108837                       # Number of DRAM write bursts (Count)
system.dcache_ctrl.far_memory.perBankRdBursts::0         3426                       # Per bank write bursts (Count)
system.dcache_ctrl.far_memory.perBankRdBursts::1         3467                       # Per bank write bursts (Count)
system.dcache_ctrl.far_memory.perBankRdBursts::2         3515                       # Per bank write bursts (Count)
system.dcache_ctrl.far_memory.perBankRdBursts::3         3319                       # Per bank write bursts (Count)
system.dcache_ctrl.far_memory.perBankRdBursts::4         3469                       # Per bank write bursts (Count)
system.dcache_ctrl.far_memory.perBankRdBursts::5         3404                       # Per bank write bursts (Count)
system.dcache_ctrl.far_memory.perBankRdBursts::6         3395                       # Per bank write bursts (Count)
system.dcache_ctrl.far_memory.perBankRdBursts::7         3379                       # Per bank write bursts (Count)
system.dcache_ctrl.far_memory.perBankRdBursts::8         3303                       # Per bank write bursts (Count)
system.dcache_ctrl.far_memory.perBankRdBursts::9         3414                       # Per bank write bursts (Count)
system.dcache_ctrl.far_memory.perBankRdBursts::10         3444                       # Per bank write bursts (Count)
system.dcache_ctrl.far_memory.perBankRdBursts::11         3400                       # Per bank write bursts (Count)
system.dcache_ctrl.far_memory.perBankRdBursts::12         3494                       # Per bank write bursts (Count)
system.dcache_ctrl.far_memory.perBankRdBursts::13         3424                       # Per bank write bursts (Count)
system.dcache_ctrl.far_memory.perBankRdBursts::14         3336                       # Per bank write bursts (Count)
system.dcache_ctrl.far_memory.perBankRdBursts::15         3434                       # Per bank write bursts (Count)
system.dcache_ctrl.far_memory.perBankRdBursts::16         3478                       # Per bank write bursts (Count)
system.dcache_ctrl.far_memory.perBankRdBursts::17         3402                       # Per bank write bursts (Count)
system.dcache_ctrl.far_memory.perBankRdBursts::18         3371                       # Per bank write bursts (Count)
system.dcache_ctrl.far_memory.perBankRdBursts::19         3400                       # Per bank write bursts (Count)
system.dcache_ctrl.far_memory.perBankRdBursts::20         3432                       # Per bank write bursts (Count)
system.dcache_ctrl.far_memory.perBankRdBursts::21         3347                       # Per bank write bursts (Count)
system.dcache_ctrl.far_memory.perBankRdBursts::22         3398                       # Per bank write bursts (Count)
system.dcache_ctrl.far_memory.perBankRdBursts::23         3439                       # Per bank write bursts (Count)
system.dcache_ctrl.far_memory.perBankRdBursts::24         3418                       # Per bank write bursts (Count)
system.dcache_ctrl.far_memory.perBankRdBursts::25         3369                       # Per bank write bursts (Count)
system.dcache_ctrl.far_memory.perBankRdBursts::26         3374                       # Per bank write bursts (Count)
system.dcache_ctrl.far_memory.perBankRdBursts::27         3355                       # Per bank write bursts (Count)
system.dcache_ctrl.far_memory.perBankRdBursts::28         3364                       # Per bank write bursts (Count)
system.dcache_ctrl.far_memory.perBankRdBursts::29         3376                       # Per bank write bursts (Count)
system.dcache_ctrl.far_memory.perBankRdBursts::30         3395                       # Per bank write bursts (Count)
system.dcache_ctrl.far_memory.perBankRdBursts::31         3260                       # Per bank write bursts (Count)
system.dcache_ctrl.far_memory.perBankWrBursts::0         3426                       # Per bank write bursts (Count)
system.dcache_ctrl.far_memory.perBankWrBursts::1         3466                       # Per bank write bursts (Count)
system.dcache_ctrl.far_memory.perBankWrBursts::2         3515                       # Per bank write bursts (Count)
system.dcache_ctrl.far_memory.perBankWrBursts::3         3323                       # Per bank write bursts (Count)
system.dcache_ctrl.far_memory.perBankWrBursts::4         3474                       # Per bank write bursts (Count)
system.dcache_ctrl.far_memory.perBankWrBursts::5         3405                       # Per bank write bursts (Count)
system.dcache_ctrl.far_memory.perBankWrBursts::6         3393                       # Per bank write bursts (Count)
system.dcache_ctrl.far_memory.perBankWrBursts::7         3381                       # Per bank write bursts (Count)
system.dcache_ctrl.far_memory.perBankWrBursts::8         3303                       # Per bank write bursts (Count)
system.dcache_ctrl.far_memory.perBankWrBursts::9         3416                       # Per bank write bursts (Count)
system.dcache_ctrl.far_memory.perBankWrBursts::10         3446                       # Per bank write bursts (Count)
system.dcache_ctrl.far_memory.perBankWrBursts::11         3405                       # Per bank write bursts (Count)
system.dcache_ctrl.far_memory.perBankWrBursts::12         3499                       # Per bank write bursts (Count)
system.dcache_ctrl.far_memory.perBankWrBursts::13         3422                       # Per bank write bursts (Count)
system.dcache_ctrl.far_memory.perBankWrBursts::14         3343                       # Per bank write bursts (Count)
system.dcache_ctrl.far_memory.perBankWrBursts::15         3430                       # Per bank write bursts (Count)
system.dcache_ctrl.far_memory.perBankWrBursts::16         3480                       # Per bank write bursts (Count)
system.dcache_ctrl.far_memory.perBankWrBursts::17         3400                       # Per bank write bursts (Count)
system.dcache_ctrl.far_memory.perBankWrBursts::18         3370                       # Per bank write bursts (Count)
system.dcache_ctrl.far_memory.perBankWrBursts::19         3401                       # Per bank write bursts (Count)
system.dcache_ctrl.far_memory.perBankWrBursts::20         3434                       # Per bank write bursts (Count)
system.dcache_ctrl.far_memory.perBankWrBursts::21         3347                       # Per bank write bursts (Count)
system.dcache_ctrl.far_memory.perBankWrBursts::22         3395                       # Per bank write bursts (Count)
system.dcache_ctrl.far_memory.perBankWrBursts::23         3436                       # Per bank write bursts (Count)
system.dcache_ctrl.far_memory.perBankWrBursts::24         3424                       # Per bank write bursts (Count)
system.dcache_ctrl.far_memory.perBankWrBursts::25         3365                       # Per bank write bursts (Count)
system.dcache_ctrl.far_memory.perBankWrBursts::26         3377                       # Per bank write bursts (Count)
system.dcache_ctrl.far_memory.perBankWrBursts::27         3356                       # Per bank write bursts (Count)
system.dcache_ctrl.far_memory.perBankWrBursts::28         3369                       # Per bank write bursts (Count)
system.dcache_ctrl.far_memory.perBankWrBursts::29         3381                       # Per bank write bursts (Count)
system.dcache_ctrl.far_memory.perBankWrBursts::30         3390                       # Per bank write bursts (Count)
system.dcache_ctrl.far_memory.perBankWrBursts::31         3265                       # Per bank write bursts (Count)
system.dcache_ctrl.far_memory.totQLat     27359735426                       # Total ticks spent queuing (Tick)
system.dcache_ctrl.far_memory.totBusLat     362524932                       # Total ticks spent in databus transfers (Tick)
system.dcache_ctrl.far_memory.totMemAccLat  29262882518                       # Total ticks spent from burst creation until serviced by the DRAM (Tick)
system.dcache_ctrl.far_memory.avgQLat       251465.85                       # Average queueing delay per DRAM burst ((Tick/Count))
system.dcache_ctrl.far_memory.avgBusLat       3332.00                       # Average bus latency per DRAM burst ((Tick/Count))
system.dcache_ctrl.far_memory.avgMemAccLat    268957.85                       # Average memory access latency per DRAM burst ((Tick/Count))
system.dcache_ctrl.far_memory.readRowHits           39                       # Number of row buffer hits during reads (Count)
system.dcache_ctrl.far_memory.writeRowHits          158                       # Number of row buffer hits during writes (Count)
system.dcache_ctrl.far_memory.readRowHitRate         0.04                       # Row buffer hit rate for reads (Ratio)
system.dcache_ctrl.far_memory.writeRowHitRate         0.15                       # Row buffer hit rate for writes (Ratio)
system.dcache_ctrl.far_memory.bytesPerActivate::samples       217434                       # Bytes accessed per row activation (Byte)
system.dcache_ctrl.far_memory.bytesPerActivate::mean    64.057985                       # Bytes accessed per row activation (Byte)
system.dcache_ctrl.far_memory.bytesPerActivate::gmean    64.040205                       # Bytes accessed per row activation (Byte)
system.dcache_ctrl.far_memory.bytesPerActivate::stdev     1.925544                       # Bytes accessed per row activation (Byte)
system.dcache_ctrl.far_memory.bytesPerActivate::64-79       217237     99.91%     99.91% # Bytes accessed per row activation (Byte)
system.dcache_ctrl.far_memory.bytesPerActivate::128-143          197      0.09%    100.00% # Bytes accessed per row activation (Byte)
system.dcache_ctrl.far_memory.bytesPerActivate::total       217434                       # Bytes accessed per row activation (Byte)
system.dcache_ctrl.far_memory.bytesRead       6963264                       # Total bytes read (Byte)
system.dcache_ctrl.far_memory.bytesWritten      6965568                       # Total bytes written (Byte)
system.dcache_ctrl.far_memory.avgRdBW     6960.445020                       # Average DRAM read bandwidth in MiBytes/s ((Byte/Second))
system.dcache_ctrl.far_memory.avgWrBW     6962.748087                       # Average DRAM write bandwidth in MiBytes/s ((Byte/Second))
system.dcache_ctrl.far_memory.peakBW         19207.00                       # Theoretical peak bandwidth in MiByte/s ((Byte/Second))
system.dcache_ctrl.far_memory.busUtil           72.49                       # Data bus utilization in percentage (Ratio)
system.dcache_ctrl.far_memory.busUtilRead        36.24                       # Data bus utilization in percentage for reads (Ratio)
system.dcache_ctrl.far_memory.busUtilWrite        36.25                       # Data bus utilization in percentage for writes (Ratio)
system.dcache_ctrl.far_memory.pageHitRate         0.09                       # Row buffer hit rate, read and write combined (Ratio)
system.dcache_ctrl.far_memory.power_state.pwrStateResidencyTicks::UNDEFINED   1000405000                       # Cumulative time (in ticks) in various power states (Tick)
system.dcache_ctrl.far_memory.rank0.actEnergy 340499105.856000                       # Energy for activate commands per rank (pJ) (Joule)
system.dcache_ctrl.far_memory.rank0.preEnergy 452647732.454400                       # Energy for precharge commands per rank (pJ) (Joule)
system.dcache_ctrl.far_memory.rank0.readEnergy 229744817.299200                       # Energy for read commands per rank (pJ) (Joule)
system.dcache_ctrl.far_memory.rank0.writeEnergy 205375496.928000                       # Energy for write commands per rank (pJ) (Joule)
system.dcache_ctrl.far_memory.rank0.refreshEnergy 177328336.281601                       # Energy for refresh commands per rank (pJ) (Joule)
system.dcache_ctrl.far_memory.rank0.actBackEnergy 826875785.332800                       # Energy for active background per rank (pJ) (Joule)
system.dcache_ctrl.far_memory.rank0.preBackEnergy 17725131.110400                       # Energy for precharge background per rank (pJ) (Joule)
system.dcache_ctrl.far_memory.rank0.actPowerDownEnergy            0                       # Energy for active power-down per rank (pJ) (Joule)
system.dcache_ctrl.far_memory.rank0.prePowerDownEnergy            0                       # Energy for precharge power-down per rank (pJ) (Joule)
system.dcache_ctrl.far_memory.rank0.selfRefreshEnergy            0                       # Energy for self refresh per rank (pJ) (Joule)
system.dcache_ctrl.far_memory.rank0.totalEnergy 2250196405.262400                       # Total energy per rank (pJ) (Joule)
system.dcache_ctrl.far_memory.rank0.averagePower  2249.285445                       # Core power per rank (mW) (Watt)
system.dcache_ctrl.far_memory.rank0.totalIdleTime            0                       # Total Idle time Per DRAM Rank (Tick)
system.dcache_ctrl.far_memory.rank0.pwrStateTime::IDLE     22738384                       # Time in different power states (Tick)
system.dcache_ctrl.far_memory.rank0.pwrStateTime::REF     44800000                       # Time in different power states (Tick)
system.dcache_ctrl.far_memory.rank0.pwrStateTime::SREF            0                       # Time in different power states (Tick)
system.dcache_ctrl.far_memory.rank0.pwrStateTime::PRE_PDN            0                       # Time in different power states (Tick)
system.dcache_ctrl.far_memory.rank0.pwrStateTime::ACT    932866616                       # Time in different power states (Tick)
system.dcache_ctrl.far_memory.rank0.pwrStateTime::ACT_PDN            0                       # Time in different power states (Tick)
system.dcache_ctrl.far_memory.rank1.actEnergy 337636091.520000                       # Energy for activate commands per rank (pJ) (Joule)
system.dcache_ctrl.far_memory.rank1.preEnergy 448874562.326400                       # Energy for precharge commands per rank (pJ) (Joule)
system.dcache_ctrl.far_memory.rank1.readEnergy 227889831.590400                       # Energy for read commands per rank (pJ) (Joule)
system.dcache_ctrl.far_memory.rank1.writeEnergy 203672898.240000                       # Energy for write commands per rank (pJ) (Joule)
system.dcache_ctrl.far_memory.rank1.refreshEnergy 177328336.281601                       # Energy for refresh commands per rank (pJ) (Joule)
system.dcache_ctrl.far_memory.rank1.actBackEnergy 829136232.792000                       # Energy for active background per rank (pJ) (Joule)
system.dcache_ctrl.far_memory.rank1.preBackEnergy 15988290.124800                       # Energy for precharge background per rank (pJ) (Joule)
system.dcache_ctrl.far_memory.rank1.actPowerDownEnergy            0                       # Energy for active power-down per rank (pJ) (Joule)
system.dcache_ctrl.far_memory.rank1.prePowerDownEnergy            0                       # Energy for precharge power-down per rank (pJ) (Joule)
system.dcache_ctrl.far_memory.rank1.selfRefreshEnergy            0                       # Energy for self refresh per rank (pJ) (Joule)
system.dcache_ctrl.far_memory.rank1.totalEnergy 2240526242.875199                       # Total energy per rank (pJ) (Joule)
system.dcache_ctrl.far_memory.rank1.averagePower  2239.619197                       # Core power per rank (mW) (Watt)
system.dcache_ctrl.far_memory.rank1.totalIdleTime            0                       # Total Idle time Per DRAM Rank (Tick)
system.dcache_ctrl.far_memory.rank1.pwrStateTime::IDLE     20197000                       # Time in different power states (Tick)
system.dcache_ctrl.far_memory.rank1.pwrStateTime::REF     44800000                       # Time in different power states (Tick)
system.dcache_ctrl.far_memory.rank1.pwrStateTime::SREF            0                       # Time in different power states (Tick)
system.dcache_ctrl.far_memory.rank1.pwrStateTime::PRE_PDN            0                       # Time in different power states (Tick)
system.dcache_ctrl.far_memory.rank1.pwrStateTime::ACT    935408000                       # Time in different power states (Tick)
system.dcache_ctrl.far_memory.rank1.pwrStateTime::ACT_PDN            0                       # Time in different power states (Tick)
system.dcache_ctrl.power_state.pwrStateResidencyTicks::UNDEFINED   1000405000                       # Cumulative time (in ticks) in various power states (Tick)
system.farMem_ctrl.avgPriority_writebacks::samples    108962.00                       # Average QoS priority value for accepted requests (Count)
system.farMem_ctrl.avgPriority_generator::samples    108856.00                       # Average QoS priority value for accepted requests (Count)
system.farMem_ctrl.priorityMinLatency    0.000000031652                       # per QoS priority minimum request to response latency (Second)
system.farMem_ctrl.priorityMaxLatency    0.000012852774                       # per QoS priority maximum request to response latency (Second)
system.farMem_ctrl.numReadWriteTurnArounds         5902                       # Number of turnarounds from READ to WRITE (Count)
system.farMem_ctrl.numWriteReadTurnArounds         5903                       # Number of turnarounds from WRITE to READ (Count)
system.farMem_ctrl.numStayReadState            107565                       # Number of times bus staying in READ state (Count)
system.farMem_ctrl.numStayWriteState           104817                       # Number of times bus staying in WRITE state (Count)
system.farMem_ctrl.readReqs                    108998                       # Number of read requests accepted (Count)
system.farMem_ctrl.writeReqs                   108962                       # Number of write requests accepted (Count)
system.farMem_ctrl.readBursts                  108998                       # Number of controller read bursts, including those serviced by the write queue (Count)
system.farMem_ctrl.writeBursts                 108962                       # Number of controller write bursts, including those merged in the write queue (Count)
system.farMem_ctrl.servicedByWrQ                  142                       # Number of controller read bursts serviced by the write queue (Count)
system.farMem_ctrl.mergedWrBursts                   0                       # Number of controller write bursts merged with an existing one (Count)
system.farMem_ctrl.neitherReadNorWriteReqs            0                       # Number of requests that are neither read nor write (Count)
system.farMem_ctrl.avgRdQLen                    47.03                       # Average read queue length when enqueuing ((Count/Tick))
system.farMem_ctrl.avgWrQLen                   122.85                       # Average write queue length when enqueuing ((Count/Tick))
system.farMem_ctrl.numRdRetry                   18354                       # Number of times read queue was full causing retry (Count)
system.farMem_ctrl.numWrRetry                   41920                       # Number of times write queue was full causing retry (Count)
system.farMem_ctrl.readPktSize::0                   0                       # Read request sizes (log2) (Count)
system.farMem_ctrl.readPktSize::1                   0                       # Read request sizes (log2) (Count)
system.farMem_ctrl.readPktSize::2                   0                       # Read request sizes (log2) (Count)
system.farMem_ctrl.readPktSize::3                   0                       # Read request sizes (log2) (Count)
system.farMem_ctrl.readPktSize::4                   0                       # Read request sizes (log2) (Count)
system.farMem_ctrl.readPktSize::5                   0                       # Read request sizes (log2) (Count)
[...]
system.farMem_ctrl.wrQLenPdf::113                1172                       # What write queue length does an incoming req see (Count)
system.farMem_ctrl.wrQLenPdf::114                1109                       # What write queue length does an incoming req see (Count)
system.farMem_ctrl.wrQLenPdf::115                1232                       # What write queue length does an incoming req see (Count)
system.farMem_ctrl.wrQLenPdf::116                1122                       # What write queue length does an incoming req see (Count)
system.farMem_ctrl.wrQLenPdf::117                1217                       # What write queue length does an incoming req see (Count)
system.farMem_ctrl.wrQLenPdf::118                1291                       # What write queue length does an incoming req see (Count)
system.farMem_ctrl.wrQLenPdf::119                1501                       # What write queue length does an incoming req see (Count)
system.farMem_ctrl.wrQLenPdf::120                1792                       # What write queue length does an incoming req see (Count)
system.farMem_ctrl.wrQLenPdf::121                2210                       # What write queue length does an incoming req see (Count)
system.farMem_ctrl.wrQLenPdf::122                2459                       # What write queue length does an incoming req see (Count)
system.farMem_ctrl.wrQLenPdf::123                3142                       # What write queue length does an incoming req see (Count)
system.farMem_ctrl.wrQLenPdf::124                4165                       # What write queue length does an incoming req see (Count)
system.farMem_ctrl.wrQLenPdf::125                4364                       # What write queue length does an incoming req see (Count)
system.farMem_ctrl.wrQLenPdf::126                4324                       # What write queue length does an incoming req see (Count)
system.farMem_ctrl.wrQLenPdf::127               46216                       # What write queue length does an incoming req see (Count)
system.farMem_ctrl.rdPerTurnAround::samples         5903                       # Reads before turning the bus around for writes (Count)
system.farMem_ctrl.rdPerTurnAround::mean    18.431476                       # Reads before turning the bus around for writes (Count)
system.farMem_ctrl.rdPerTurnAround::gmean    16.231360                       # Reads before turning the bus around for writes (Count)
system.farMem_ctrl.rdPerTurnAround::stdev    13.583770                       # Reads before turning the bus around for writes (Count)
system.farMem_ctrl.rdPerTurnAround::0-3           101      1.71%      1.71% # Reads before turning the bus around for writes (Count)
system.farMem_ctrl.rdPerTurnAround::4-7           127      2.15%      3.86% # Reads before turning the bus around for writes (Count)
system.farMem_ctrl.rdPerTurnAround::8-11          163      2.76%      6.62% # Reads before turning the bus around for writes (Count)
system.farMem_ctrl.rdPerTurnAround::12-15          336      5.69%     12.32% # Reads before turning the bus around for writes (Count)
system.farMem_ctrl.rdPerTurnAround::16-19         4635     78.52%     90.84% # Reads before turning the bus around for writes (Count)
system.farMem_ctrl.rdPerTurnAround::20-23           89      1.51%     92.34% # Reads before turning the bus around for writes (Count)
system.farMem_ctrl.rdPerTurnAround::24-27           53      0.90%     93.24% # Reads before turning the bus around for writes (Count)
system.farMem_ctrl.rdPerTurnAround::28-31           29      0.49%     93.73% # Reads before turning the bus around for writes (Count)
system.farMem_ctrl.rdPerTurnAround::32-35           19      0.32%     94.05% # Reads before turning the bus around for writes (Count)
system.farMem_ctrl.rdPerTurnAround::36-39           31      0.53%     94.58% # Reads before turning the bus around for writes (Count)
system.farMem_ctrl.rdPerTurnAround::40-43           32      0.54%     95.12% # Reads before turning the bus around for writes (Count)
system.farMem_ctrl.rdPerTurnAround::44-47           23      0.39%     95.51% # Reads before turning the bus around for writes (Count)
system.farMem_ctrl.rdPerTurnAround::48-51           28      0.47%     95.99% # Reads before turning the bus around for writes (Count)
system.farMem_ctrl.rdPerTurnAround::52-55           50      0.85%     96.83% # Reads before turning the bus around for writes (Count)
system.farMem_ctrl.rdPerTurnAround::56-59           88      1.49%     98.32% # Reads before turning the bus around for writes (Count)
system.farMem_ctrl.rdPerTurnAround::60-63            9      0.15%     98.48% # Reads before turning the bus around for writes (Count)
system.farMem_ctrl.rdPerTurnAround::64-67            2      0.03%     98.51% # Reads before turning the bus around for writes (Count)
system.farMem_ctrl.rdPerTurnAround::68-71            4      0.07%     98.58% # Reads before turning the bus around for writes (Count)
system.farMem_ctrl.rdPerTurnAround::72-75            3      0.05%     98.63% # Reads before turning the bus around for writes (Count)
system.farMem_ctrl.rdPerTurnAround::76-79            9      0.15%     98.78% # Reads before turning the bus around for writes (Count)
system.farMem_ctrl.rdPerTurnAround::80-83            4      0.07%     98.85% # Reads before turning the bus around for writes (Count)
system.farMem_ctrl.rdPerTurnAround::84-87            5      0.08%     98.93% # Reads before turning the bus around for writes (Count)
system.farMem_ctrl.rdPerTurnAround::88-91            5      0.08%     99.02% # Reads before turning the bus around for writes (Count)
system.farMem_ctrl.rdPerTurnAround::92-95            6      0.10%     99.12% # Reads before turning the bus around for writes (Count)
system.farMem_ctrl.rdPerTurnAround::96-99            3      0.05%     99.17% # Reads before turning the bus around for writes (Count)
system.farMem_ctrl.rdPerTurnAround::100-103            6      0.10%     99.27% # Reads before turning the bus around for writes (Count)
system.farMem_ctrl.rdPerTurnAround::104-107            3      0.05%     99.32% # Reads before turning the bus around for writes (Count)
system.farMem_ctrl.rdPerTurnAround::108-111            6      0.10%     99.42% # Reads before turning the bus around for writes (Count)
system.farMem_ctrl.rdPerTurnAround::112-115            2      0.03%     99.46% # Reads before turning the bus around for writes (Count)
system.farMem_ctrl.rdPerTurnAround::116-119            9      0.15%     99.61% # Reads before turning the bus around for writes (Count)
system.farMem_ctrl.rdPerTurnAround::120-123            7      0.12%     99.73% # Reads before turning the bus around for writes (Count)
system.farMem_ctrl.rdPerTurnAround::124-127            3      0.05%     99.78% # Reads before turning the bus around for writes (Count)
system.farMem_ctrl.rdPerTurnAround::128-131            1      0.02%     99.80% # Reads before turning the bus around for writes (Count)
system.farMem_ctrl.rdPerTurnAround::132-135            5      0.08%     99.88% # Reads before turning the bus around for writes (Count)
system.farMem_ctrl.rdPerTurnAround::136-139            1      0.02%     99.90% # Reads before turning the bus around for writes (Count)
system.farMem_ctrl.rdPerTurnAround::140-143            2      0.03%     99.93% # Reads before turning the bus around for writes (Count)
system.farMem_ctrl.rdPerTurnAround::148-151            2      0.03%     99.97% # Reads before turning the bus around for writes (Count)
system.farMem_ctrl.rdPerTurnAround::156-159            1      0.02%     99.98% # Reads before turning the bus around for writes (Count)
system.farMem_ctrl.rdPerTurnAround::164-167            1      0.02%    100.00% # Reads before turning the bus around for writes (Count)
system.farMem_ctrl.rdPerTurnAround::total         5903                       # Reads before turning the bus around for writes (Count)
system.farMem_ctrl.wrPerTurnAround::samples         5902                       # Writes before turning the bus around for reads (Count)
system.farMem_ctrl.wrPerTurnAround::mean    18.440020                       # Writes before turning the bus around for reads (Count)
system.farMem_ctrl.wrPerTurnAround::gmean    17.268222                       # Writes before turning the bus around for reads (Count)
system.farMem_ctrl.wrPerTurnAround::stdev    10.606728                       # Writes before turning the bus around for reads (Count)
system.farMem_ctrl.wrPerTurnAround::16-17         5468     92.65%     92.65% # Writes before turning the bus around for reads (Count)
system.farMem_ctrl.wrPerTurnAround::18-19            9      0.15%     92.80% # Writes before turning the bus around for reads (Count)
system.farMem_ctrl.wrPerTurnAround::20-21           11      0.19%     92.99% # Writes before turning the bus around for reads (Count)
system.farMem_ctrl.wrPerTurnAround::22-23           12      0.20%     93.19% # Writes before turning the bus around for reads (Count)
system.farMem_ctrl.wrPerTurnAround::24-25           15      0.25%     93.44% # Writes before turning the bus around for reads (Count)
system.farMem_ctrl.wrPerTurnAround::26-27            8      0.14%     93.58% # Writes before turning the bus around for reads (Count)
system.farMem_ctrl.wrPerTurnAround::28-29           19      0.32%     93.90% # Writes before turning the bus around for reads (Count)
system.farMem_ctrl.wrPerTurnAround::30-31           16      0.27%     94.17% # Writes before turning the bus around for reads (Count)
system.farMem_ctrl.wrPerTurnAround::32-33           13      0.22%     94.39% # Writes before turning the bus around for reads (Count)
system.farMem_ctrl.wrPerTurnAround::34-35           17      0.29%     94.68% # Writes before turning the bus around for reads (Count)
system.farMem_ctrl.wrPerTurnAround::36-37           17      0.29%     94.97% # Writes before turning the bus around for reads (Count)
system.farMem_ctrl.wrPerTurnAround::38-39           12      0.20%     95.17% # Writes before turning the bus around for reads (Count)
system.farMem_ctrl.wrPerTurnAround::40-41           12      0.20%     95.37% # Writes before turning the bus around for reads (Count)
system.farMem_ctrl.wrPerTurnAround::42-43           13      0.22%     95.59% # Writes before turning the bus around for reads (Count)
system.farMem_ctrl.wrPerTurnAround::44-45           12      0.20%     95.80% # Writes before turning the bus around for reads (Count)
system.farMem_ctrl.wrPerTurnAround::46-47           27      0.46%     96.26% # Writes before turning the bus around for reads (Count)
system.farMem_ctrl.wrPerTurnAround::48-49           22      0.37%     96.63% # Writes before turning the bus around for reads (Count)
system.farMem_ctrl.wrPerTurnAround::50-51           23      0.39%     97.02% # Writes before turning the bus around for reads (Count)
system.farMem_ctrl.wrPerTurnAround::52-53           20      0.34%     97.36% # Writes before turning the bus around for reads (Count)
system.farMem_ctrl.wrPerTurnAround::54-55           25      0.42%     97.78% # Writes before turning the bus around for reads (Count)
system.farMem_ctrl.wrPerTurnAround::56-57           15      0.25%     98.03% # Writes before turning the bus around for reads (Count)
system.farMem_ctrl.wrPerTurnAround::58-59           37      0.63%     98.66% # Writes before turning the bus around for reads (Count)
system.farMem_ctrl.wrPerTurnAround::60-61           16      0.27%     98.93% # Writes before turning the bus around for reads (Count)
system.farMem_ctrl.wrPerTurnAround::62-63            4      0.07%     99.00% # Writes before turning the bus around for reads (Count)
system.farMem_ctrl.wrPerTurnAround::64-65            6      0.10%     99.10% # Writes before turning the bus around for reads (Count)
system.farMem_ctrl.wrPerTurnAround::66-67            6      0.10%     99.20% # Writes before turning the bus around for reads (Count)
system.farMem_ctrl.wrPerTurnAround::68-69            4      0.07%     99.27% # Writes before turning the bus around for reads (Count)
system.farMem_ctrl.wrPerTurnAround::70-71            1      0.02%     99.29% # Writes before turning the bus around for reads (Count)
system.farMem_ctrl.wrPerTurnAround::72-73            2      0.03%     99.32% # Writes before turning the bus around for reads (Count)
system.farMem_ctrl.wrPerTurnAround::74-75            3      0.05%     99.37% # Writes before turning the bus around for reads (Count)
system.farMem_ctrl.wrPerTurnAround::76-77            5      0.08%     99.46% # Writes before turning the bus around for reads (Count)
system.farMem_ctrl.wrPerTurnAround::78-79            2      0.03%     99.49% # Writes before turning the bus around for reads (Count)
system.farMem_ctrl.wrPerTurnAround::80-81            1      0.02%     99.51% # Writes before turning the bus around for reads (Count)
system.farMem_ctrl.wrPerTurnAround::82-83            2      0.03%     99.54% # Writes before turning the bus around for reads (Count)
system.farMem_ctrl.wrPerTurnAround::84-85            1      0.02%     99.56% # Writes before turning the bus around for reads (Count)
system.farMem_ctrl.wrPerTurnAround::88-89            3      0.05%     99.61% # Writes before turning the bus around for reads (Count)
system.farMem_ctrl.wrPerTurnAround::90-91            2      0.03%     99.64% # Writes before turning the bus around for reads (Count)
system.farMem_ctrl.wrPerTurnAround::92-93            2      0.03%     99.68% # Writes before turning the bus around for reads (Count)
system.farMem_ctrl.wrPerTurnAround::94-95            2      0.03%     99.71% # Writes before turning the bus around for reads (Count)
system.farMem_ctrl.wrPerTurnAround::96-97            2      0.03%     99.75% # Writes before turning the bus around for reads (Count)
system.farMem_ctrl.wrPerTurnAround::100-101            2      0.03%     99.78% # Writes before turning the bus around for reads (Count)
system.farMem_ctrl.wrPerTurnAround::104-105            2      0.03%     99.81% # Writes before turning the bus around for reads (Count)
system.farMem_ctrl.wrPerTurnAround::106-107            4      0.07%     99.88% # Writes before turning the bus around for reads (Count)
system.farMem_ctrl.wrPerTurnAround::108-109            1      0.02%     99.90% # Writes before turning the bus around for reads (Count)
system.farMem_ctrl.wrPerTurnAround::110-111            1      0.02%     99.92% # Writes before turning the bus around for reads (Count)
system.farMem_ctrl.wrPerTurnAround::130-131            1      0.02%     99.93% # Writes before turning the bus around for reads (Count)
system.farMem_ctrl.wrPerTurnAround::134-135            1      0.02%     99.95% # Writes before turning the bus around for reads (Count)
system.farMem_ctrl.wrPerTurnAround::156-157            1      0.02%     99.97% # Writes before turning the bus around for reads (Count)
system.farMem_ctrl.wrPerTurnAround::180-181            1      0.02%     99.98% # Writes before turning the bus around for reads (Count)
system.farMem_ctrl.wrPerTurnAround::236-237            1      0.02%    100.00% # Writes before turning the bus around for reads (Count)
system.farMem_ctrl.wrPerTurnAround::total         5902                       # Writes before turning the bus around for reads (Count)
system.farMem_ctrl.bytesReadWrQ                  9088                       # Total number of bytes read from write queue (Byte)
system.farMem_ctrl.bytesReadSys               6975872                       # Total read bytes from the system interface side (Byte)
system.farMem_ctrl.bytesWrittenSys            6973568                       # Total written bytes from the system interface side (Byte)
system.farMem_ctrl.avgRdBWSys            6973047915.59418392                       # Average system read bandwidth in Byte/s ((Byte/Second))
system.farMem_ctrl.avgWrBWSys            6970744848.33642387                       # Average system write bandwidth in Byte/s ((Byte/Second))
system.farMem_ctrl.totGap                  1000358482                       # Total gap between requests (Tick)
system.farMem_ctrl.avgGap                     4589.64                       # Average gap between requests ((Tick/Count))
system.farMem_ctrl.requestorReadBytes::generator      6963264                       # Per-requestor bytes read from memory (Byte)
system.farMem_ctrl.requestorWriteBytes::writebacks      6965568                       # Per-requestor bytes write to memory (Byte)
system.farMem_ctrl.requestorReadRate::generator 6960445019.766994476318                       # Per-requestor bytes read from memory rate ((Byte/Second))
system.farMem_ctrl.requestorWriteRate::writebacks 6962748087.024754524231                       # Per-requestor bytes write to memory rate ((Byte/Second))
system.farMem_ctrl.requestorReadAccesses::generator       108998                       # Per-requestor read serviced memory accesses (Count)
system.farMem_ctrl.requestorWriteAccesses::writebacks       108962                       # Per-requestor write serviced memory accesses (Count)
system.farMem_ctrl.requestorReadTotalLat::generator  29262882518                       # Per-requestor read total memory access latency (Tick)
system.farMem_ctrl.requestorWriteTotalLat::writebacks 116042436666                       # Per-requestor write total memory access latency (Tick)
system.farMem_ctrl.requestorReadAvgLat::generator    268471.74                       # Per-requestor read average memory access latency ((Tick/Count))
system.farMem_ctrl.requestorWriteAvgLat::writebacks   1064980.79                       # Per-requestor write average memory access latency ((Tick/Count))
system.farMem_ctrl.power_state.pwrStateResidencyTicks::UNDEFINED   1000405000                       # Cumulative time (in ticks) in various power states (Tick)
system.generator.numSuppressed                      0                       # Number of suppressed packets to non-memory space (Count)
system.generator.numPackets                    109185                       # Number of packets generated (Count)
system.generator.numRetries                    107418                       # Number of retries (Count)
system.generator.retryTicks                 998485446                       # Time spent waiting due to back-pressure (Tick)
system.generator.bytesRead                    6971328                       # Number of bytes read (Byte)
system.generator.bytesWritten                       0                       # Number of bytes written (Byte)
system.generator.totalReadLatency        289830393119                       # Total latency of read requests (Tick)
system.generator.totalWriteLatency                  0                       # Total latency of write requests (Tick)
system.generator.totalReads                    108927                       # Total num of reads (Count)
system.generator.totalWrites                        0                       # Total num of writes (Count)
system.generator.avgReadLatency          2660776.420162                       # Avg latency of read requests ((Tick/Count))
system.generator.avgWriteLatency                  nan                       # Avg latency of write requests ((Tick/Count))
system.generator.readBW                  6968505755.169156                       # Read bandwidth ((Byte/Second))
system.generator.writeBW                            0                       # Write bandwidth ((Byte/Second))
system.generator.power_state.pwrStateResidencyTicks::UNDEFINED   1000405000                       # Cumulative time (in ticks) in various power states (Tick)
system.workload.inst.arm                            0                       # number of arm instructions executed (Count)
system.workload.inst.quiesce                        0                       # number of quiesce instructions executed (Count)

---------- End Simulation Statistics   ----------
