
---------- Begin Simulation Statistics ----------
simSeconds                                   0.020001                       # Number of seconds simulated (Second)
simTicks                                  20000601000                       # Number of ticks simulated (Tick)
finalTick                                 20000601000                       # Number of ticks from beginning of simulation (restored from checkpoints and never reset) (Tick)
simFreq                                  1000000000000                       # The number of ticks per simulated second ((Tick/Second))
hostSeconds                                     99.23                       # Real time elapsed on the host (Second)
hostTickRate                                201562435                       # The number of ticks simulated per host second (ticks/s) ((Tick/Second))
hostMemory                                    3253828                       # Number of bytes of host memory used (Byte)
system.clk_domain.clock                           250                       # Clock period in ticks (Tick)
system.clk_domain.voltage_domain.voltage            1                       # Voltage in Volts (Volt)
system.far_mem_ctrl.priorityMinLatency   0.000000000000                       # per QoS priority minimum request to response latency (Second)
system.far_mem_ctrl.priorityMaxLatency   0.000000000000                       # per QoS priority maximum request to response latency (Second)
system.far_mem_ctrl.numReadWriteTurnArounds            0                       # Number of turnarounds from READ to WRITE (Count)
system.far_mem_ctrl.numWriteReadTurnArounds            0                       # Number of turnarounds from WRITE to READ (Count)
system.far_mem_ctrl.numStayReadState             5136                       # Number of times bus staying in READ state (Count)
system.far_mem_ctrl.numStayWriteState               0                       # Number of times bus staying in WRITE state (Count)
system.far_mem_ctrl.readReqs                        0                       # Number of read requests accepted (Count)
system.far_mem_ctrl.writeReqs                       0                       # Number of write requests accepted (Count)
system.far_mem_ctrl.readBursts                      0                       # Number of controller read bursts, including those serviced by the write queue (Count)
system.far_mem_ctrl.writeBursts                     0                       # Number of controller write bursts, including those merged in the write queue (Count)
system.far_mem_ctrl.servicedByWrQ                   0                       # Number of controller read bursts serviced by the write queue (Count)
system.far_mem_ctrl.mergedWrBursts                  0                       # Number of controller write bursts merged with an existing one (Count)
system.far_mem_ctrl.avgRdQLen                    0.00                       # Average read queue length when enqueuing ((Count/Tick))
system.far_mem_ctrl.avgWrQLen                    0.00                       # Average write queue length when enqueuing ((Count/Tick))
system.far_mem_ctrl.numRdRetry                      0                       # Number of times read queue was full causing retry (Count)
system.far_mem_ctrl.numWrRetry                      0                       # Number of times write queue was full causing retry (Count)
system.far_mem_ctrl.readPktSize::0                  0                       # Read request sizes (log2) (Count)
system.far_mem_ctrl.readPktSize::1                  0                       # Read request sizes (log2) (Count)
system.far_mem_ctrl.readPktSize::2                  0                       # Read request sizes (log2) (Count)
system.far_mem_ctrl.readPktSize::3                  0                       # Read request sizes (log2) (Count)
system.far_mem_ctrl.readPktSize::4                  0                       # Read request sizes (log2) (Count)
system.far_mem_ctrl.readPktSize::5                  0                       # Read request sizes (log2) (Count)
system.far_mem_ctrl.readPktSize::6                  0                       # Read request sizes (log2) (Count)
system.far_mem_ctrl.writePktSize::0                 0                       # Write request sizes (log2) (Count)
system.far_mem_ctrl.writePktSize::1                 0                       # Write request sizes (log2) (Count)
system.far_mem_ctrl.writePktSize::2                 0                       # Write request sizes (log2) (Count)
system.far_mem_ctrl.writePktSize::3                 0                       # Write request sizes (log2) (Count)
system.far_mem_ctrl.writePktSize::4                 0                       # Write request sizes (log2) (Count)
system.far_mem_ctrl.writePktSize::5                 0                       # Write request sizes (log2) (Count)
system.far_mem_ctrl.writePktSize::6                 0                       # Write request sizes (log2) (Count)
system.far_mem_ctrl.rdQLenPdf::0                    0                       # What read queue length does an incoming req see (Count)
system.far_mem_ctrl.rdQLenPdf::1                    0                       # What read queue length does an incoming req see (Count)
system.far_mem_ctrl.rdQLenPdf::2                    0                       # What read queue length does an incoming req see (Count)
system.far_mem_ctrl.rdQLenPdf::3                    0                       # What read queue length does an incoming req see (Count)
system.far_mem_ctrl.rdQLenPdf::4                    0                       # What read queue length does an incoming req see (Count)
system.far_mem_ctrl.rdQLenPdf::5                    0                       # What read queue length does an incoming req see (Count)
system.far_mem_ctrl.rdQLenPdf::6                    0                       # What read queue length does an incoming req see (Count)
system.far_mem_ctrl.rdQLenPdf::7                    0                       # What read queue length does an incoming req see (Count)
system.far_mem_ctrl.rdQLenPdf::8                    0                       # What read queue length does an incoming req see (Count)
system.far_mem_ctrl.rdQLenPdf::9                    0                       # What read queue length does an incoming req see (Count)
system.far_mem_ctrl.rdQLenPdf::10                   0                       # What read queue length does an incoming req see (Count)
system.far_mem_ctrl.rdQLenPdf::11                   0                       # What read queue length does an incoming req see (Count)
system.far_mem_ctrl.rdQLenPdf::12                   0                       # What read queue length does an incoming req see (Count)
system.far_mem_ctrl.rdQLenPdf::13                   0                       # What read queue length does an incoming req see (Count)
system.far_mem_ctrl.rdQLenPdf::14                   0                       # What read queue length does an incoming req see (Count)
system.far_mem_ctrl.rdQLenPdf::15                   0                       # What read queue length does an incoming req see (Count)
system.far_mem_ctrl.rdQLenPdf::16                   0                       # What read queue length does an incoming req see (Count)
system.far_mem_ctrl.rdQLenPdf::17                   0                       # What read queue length does an incoming req see (Count)
system.far_mem_ctrl.rdQLenPdf::18                   0                       # What read queue length does an incoming req see (Count)
system.far_mem_ctrl.rdQLenPdf::19                   0                       # What read queue length does an incoming req see (Count)
system.far_mem_ctrl.rdQLenPdf::20                   0                       # What read queue length does an incoming req see (Count)
system.far_mem_ctrl.rdQLenPdf::21                   0                       # What read queue length does an incoming req see (Count)
system.far_mem_ctrl.rdQLenPdf::22                   0                       # What read queue length does an incoming req see (Count)
system.far_mem_ctrl.rdQLenPdf::23                   0                       # What read queue length does an incoming req see (Count)
system.far_mem_ctrl.rdQLenPdf::24                   0                       # What read queue length does an incoming req see (Count)
system.far_mem_ctrl.rdQLenPdf::25                   0                       # What read queue length does an incoming req see (Count)
system.far_mem_ctrl.rdQLenPdf::26                   0                       # What read queue length does an incoming req see (Count)
system.far_mem_ctrl.rdQLenPdf::27                   0                       # What read queue length does an incoming req see (Count)
system.far_mem_ctrl.rdQLenPdf::28                   0                       # What read queue length does an incoming req see (Count)
system.far_mem_ctrl.rdQLenPdf::29                   0                       # What read queue length does an incoming req see (Count)
system.far_mem_ctrl.rdQLenPdf::30                   0                       # What read queue length does an incoming req see (Count)
system.far_mem_ctrl.rdQLenPdf::31                   0                       # What read queue length does an incoming req see (Count)
system.far_mem_ctrl.rdQLenPdf::32                   0                       # What read queue length does an incoming req see (Count)
system.far_mem_ctrl.rdQLenPdf::33                   0                       # What read queue length does an incoming req see (Count)
system.far_mem_ctrl.rdQLenPdf::34                   0                       # What read queue length does an incoming req see (Count)
system.far_mem_ctrl.rdQLenPdf::35                   0                       # What read queue length does an incoming req see (Count)
system.far_mem_ctrl.rdQLenPdf::36                   0                       # What read queue length does an incoming req see (Count)
system.far_mem_ctrl.rdQLenPdf::37                   0                       # What read queue length does an incoming req see (Count)
system.far_mem_ctrl.rdQLenPdf::38                   0                       # What read queue length does an incoming req see (Count)
system.far_mem_ctrl.rdQLenPdf::39                   0                       # What read queue length does an incoming req see (Count)
system.far_mem_ctrl.rdQLenPdf::40                   0                       # What read queue length does an incoming req see (Count)
system.far_mem_ctrl.rdQLenPdf::41                   0                       # What read queue length does an incoming req see (Count)
system.far_mem_ctrl.rdQLenPdf::42                   0                       # What read queue length does an incoming req see (Count)
system.far_mem_ctrl.rdQLenPdf::43                   0                       # What read queue length does an incoming req see (Count)
system.far_mem_ctrl.rdQLenPdf::44                   0                       # What read queue length does an incoming req see (Count)
system.far_mem_ctrl.rdQLenPdf::45                   0                       # What read queue length does an incoming req see (Count)
system.far_mem_ctrl.rdQLenPdf::46                   0                       # What read queue length does an incoming req see (Count)
system.far_mem_ctrl.rdQLenPdf::47                   0                       # What read queue length does an incoming req see (Count)
system.far_mem_ctrl.rdQLenPdf::48                   0                       # What read queue length does an incoming req see (Count)
system.far_mem_ctrl.rdQLenPdf::49                   0                       # What read queue length does an incoming req see (Count)
system.far_mem_ctrl.rdQLenPdf::50                   0                       # What read queue length does an incoming req see (Count)
system.far_mem_ctrl.rdQLenPdf::51                   0                       # What read queue length does an incoming req see (Count)
system.far_mem_ctrl.rdQLenPdf::52                   0                       # What read queue length does an incoming req see (Count)
system.far_mem_ctrl.rdQLenPdf::53                   0                       # What read queue length does an incoming req see (Count)
system.far_mem_ctrl.rdQLenPdf::54                   0                       # What read queue length does an incoming req see (Count)
system.far_mem_ctrl.rdQLenPdf::55                   0                       # What read queue length does an incoming req see (Count)
system.far_mem_ctrl.rdQLenPdf::56                   0                       # What read queue length does an incoming req see (Count)
system.far_mem_ctrl.rdQLenPdf::57                   0                       # What read queue length does an incoming req see (Count)
system.far_mem_ctrl.rdQLenPdf::58                   0                       # What read queue length does an incoming req see (Count)
system.far_mem_ctrl.rdQLenPdf::59                   0                       # What read queue length does an incoming req see (Count)
system.far_mem_ctrl.rdQLenPdf::60                   0                       # What read queue length does an incoming req see (Count)
system.far_mem_ctrl.rdQLenPdf::61                   0                       # What read queue length does an incoming req see (Count)
system.far_mem_ctrl.rdQLenPdf::62                   0                       # What read queue length does an incoming req see (Count)
system.far_mem_ctrl.rdQLenPdf::63                   0                       # What read queue length does an incoming req see (Count)
system.far_mem_ctrl.wrQLenPdf::0                    0                       # What write queue length does an incoming req see (Count)
system.far_mem_ctrl.wrQLenPdf::1                    0                       # What write queue length does an incoming req see (Count)
system.far_mem_ctrl.wrQLenPdf::2                    0                       # What write queue length does an incoming req see (Count)
system.far_mem_ctrl.wrQLenPdf::3                    0                       # What write queue length does an incoming req see (Count)
system.far_mem_ctrl.wrQLenPdf::4                    0                       # What write queue length does an incoming req see (Count)
system.far_mem_ctrl.wrQLenPdf::5                    0                       # What write queue length does an incoming req see (Count)
system.far_mem_ctrl.wrQLenPdf::6                    0                       # What write queue length does an incoming req see (Count)
system.far_mem_ctrl.wrQLenPdf::7                    0                       # What write queue length does an incoming req see (Count)
system.far_mem_ctrl.wrQLenPdf::8                    0                       # What write queue length does an incoming req see (Count)
system.far_mem_ctrl.wrQLenPdf::9                    0                       # What write queue length does an incoming req see (Count)
system.far_mem_ctrl.wrQLenPdf::10                   0                       # What write queue length does an incoming req see (Count)
system.far_mem_ctrl.wrQLenPdf::11                   0                       # What write queue length does an incoming req see (Count)
system.far_mem_ctrl.wrQLenPdf::12                   0                       # What write queue length does an incoming req see (Count)
system.far_mem_ctrl.wrQLenPdf::13                   0                       # What write queue length does an incoming req see (Count)
system.far_mem_ctrl.wrQLenPdf::14                   0                       # What write queue length does an incoming req see (Count)
system.far_mem_ctrl.wrQLenPdf::15                   0                       # What write queue length does an incoming req see (Count)
system.far_mem_ctrl.wrQLenPdf::16                   0                       # What write queue length does an incoming req see (Count)
system.far_mem_ctrl.wrQLenPdf::17                   0                       # What write queue length does an incoming req see (Count)
system.far_mem_ctrl.wrQLenPdf::18                   0                       # What write queue length does an incoming req see (Count)
system.far_mem_ctrl.wrQLenPdf::19                   0                       # What write queue length does an incoming req see (Count)
system.far_mem_ctrl.wrQLenPdf::20                   0                       # What write queue length does an incoming req see (Count)
system.far_mem_ctrl.wrQLenPdf::21                   0                       # What write queue length does an incoming req see (Count)
system.far_mem_ctrl.wrQLenPdf::22                   0                       # What write queue length does an incoming req see (Count)
system.far_mem_ctrl.wrQLenPdf::23                   0                       # What write queue length does an incoming req see (Count)
system.far_mem_ctrl.wrQLenPdf::24                   0                       # What write queue length does an incoming req see (Count)
system.far_mem_ctrl.wrQLenPdf::25                   0                       # What write queue length does an incoming req see (Count)
system.far_mem_ctrl.wrQLenPdf::26                   0                       # What write queue length does an incoming req see (Count)
system.far_mem_ctrl.wrQLenPdf::27                   0                       # What write queue length does an incoming req see (Count)
system.far_mem_ctrl.wrQLenPdf::28                   0                       # What write queue length does an incoming req see (Count)
system.far_mem_ctrl.wrQLenPdf::29                   0                       # What write queue length does an incoming req see (Count)
system.far_mem_ctrl.wrQLenPdf::30                   0                       # What write queue length does an incoming req see (Count)
system.far_mem_ctrl.wrQLenPdf::31                   0                       # What write queue length does an incoming req see (Count)
system.far_mem_ctrl.wrQLenPdf::32                   0                       # What write queue length does an incoming req see (Count)
system.far_mem_ctrl.wrQLenPdf::33                   0                       # What write queue length does an incoming req see (Count)
system.far_mem_ctrl.wrQLenPdf::34                   0                       # What write queue length does an incoming req see (Count)
system.far_mem_ctrl.wrQLenPdf::35                   0                       # What write queue length does an incoming req see (Count)
system.far_mem_ctrl.wrQLenPdf::36                   0                       # What write queue length does an incoming req see (Count)
system.far_mem_ctrl.wrQLenPdf::37                   0                       # What write queue length does an incoming req see (Count)
system.far_mem_ctrl.wrQLenPdf::38                   0                       # What write queue length does an incoming req see (Count)
system.far_mem_ctrl.wrQLenPdf::39                   0                       # What write queue length does an incoming req see (Count)
system.far_mem_ctrl.wrQLenPdf::40                   0                       # What write queue length does an incoming req see (Count)
system.far_mem_ctrl.wrQLenPdf::41                   0                       # What write queue length does an incoming req see (Count)
system.far_mem_ctrl.wrQLenPdf::42                   0                       # What write queue length does an incoming req see (Count)
system.far_mem_ctrl.wrQLenPdf::43                   0                       # What write queue length does an incoming req see (Count)
system.far_mem_ctrl.wrQLenPdf::44                   0                       # What write queue length does an incoming req see (Count)
system.far_mem_ctrl.wrQLenPdf::45                   0                       # What write queue length does an incoming req see (Count)
system.far_mem_ctrl.wrQLenPdf::46                   0                       # What write queue length does an incoming req see (Count)
system.far_mem_ctrl.wrQLenPdf::47                   0                       # What write queue length does an incoming req see (Count)
system.far_mem_ctrl.wrQLenPdf::48                   0                       # What write queue length does an incoming req see (Count)
system.far_mem_ctrl.wrQLenPdf::49                   0                       # What write queue length does an incoming req see (Count)
system.far_mem_ctrl.wrQLenPdf::50                   0                       # What write queue length does an incoming req see (Count)
system.far_mem_ctrl.wrQLenPdf::51                   0                       # What write queue length does an incoming req see (Count)
system.far_mem_ctrl.wrQLenPdf::52                   0                       # What write queue length does an incoming req see (Count)
system.far_mem_ctrl.wrQLenPdf::53                   0                       # What write queue length does an incoming req see (Count)
system.far_mem_ctrl.wrQLenPdf::54                   0                       # What write queue length does an incoming req see (Count)
system.far_mem_ctrl.wrQLenPdf::55                   0                       # What write queue length does an incoming req see (Count)
system.far_mem_ctrl.wrQLenPdf::56                   0                       # What write queue length does an incoming req see (Count)
system.far_mem_ctrl.wrQLenPdf::57                   0                       # What write queue length does an incoming req see (Count)
system.far_mem_ctrl.wrQLenPdf::58                   0                       # What write queue length does an incoming req see (Count)
system.far_mem_ctrl.wrQLenPdf::59                   0                       # What write queue length does an incoming req see (Count)
system.far_mem_ctrl.wrQLenPdf::60                   0                       # What write queue length does an incoming req see (Count)
system.far_mem_ctrl.wrQLenPdf::61                   0                       # What write queue length does an incoming req see (Count)
system.far_mem_ctrl.wrQLenPdf::62                   0                       # What write queue length does an incoming req see (Count)
system.far_mem_ctrl.wrQLenPdf::63                   0                       # What write queue length does an incoming req see (Count)
system.far_mem_ctrl.wrQLenPdf::64                   0                       # What write queue length does an incoming req see (Count)
system.far_mem_ctrl.wrQLenPdf::65                   0                       # What write queue length does an incoming req see (Count)
system.far_mem_ctrl.wrQLenPdf::66                   0                       # What write queue length does an incoming req see (Count)
system.far_mem_ctrl.wrQLenPdf::67                   0                       # What write queue length does an incoming req see (Count)
system.far_mem_ctrl.wrQLenPdf::68                   0                       # What write queue length does an incoming req see (Count)
system.far_mem_ctrl.wrQLenPdf::69                   0                       # What write queue length does an incoming req see (Count)
system.far_mem_ctrl.wrQLenPdf::70                   0                       # What write queue length does an incoming req see (Count)
system.far_mem_ctrl.wrQLenPdf::71                   0                       # What write queue length does an incoming req see (Count)
system.far_mem_ctrl.wrQLenPdf::72                   0                       # What write queue length does an incoming req see (Count)
system.far_mem_ctrl.wrQLenPdf::73                   0                       # What write queue length does an incoming req see (Count)
system.far_mem_ctrl.wrQLenPdf::74                   0                       # What write queue length does an incoming req see (Count)
system.far_mem_ctrl.wrQLenPdf::75                   0                       # What write queue length does an incoming req see (Count)
system.far_mem_ctrl.wrQLenPdf::76                   0                       # What write queue length does an incoming req see (Count)
system.far_mem_ctrl.wrQLenPdf::77                   0                       # What write queue length does an incoming req see (Count)
system.far_mem_ctrl.wrQLenPdf::78                   0                       # What write queue length does an incoming req see (Count)
system.far_mem_ctrl.wrQLenPdf::79                   0                       # What write queue length does an incoming req see (Count)
system.far_mem_ctrl.wrQLenPdf::80                   0                       # What write queue length does an incoming req see (Count)
system.far_mem_ctrl.wrQLenPdf::81                   0                       # What write queue length does an incoming req see (Count)
system.far_mem_ctrl.wrQLenPdf::82                   0                       # What write queue length does an incoming req see (Count)
system.far_mem_ctrl.wrQLenPdf::83                   0                       # What write queue length does an incoming req see (Count)
system.far_mem_ctrl.wrQLenPdf::84                   0                       # What write queue length does an incoming req see (Count)
system.far_mem_ctrl.wrQLenPdf::85                   0                       # What write queue length does an incoming req see (Count)
system.far_mem_ctrl.wrQLenPdf::86                   0                       # What write queue length does an incoming req see (Count)
system.far_mem_ctrl.wrQLenPdf::87                   0                       # What write queue length does an incoming req see (Count)
system.far_mem_ctrl.wrQLenPdf::88                   0                       # What write queue length does an incoming req see (Count)
system.far_mem_ctrl.wrQLenPdf::89                   0                       # What write queue length does an incoming req see (Count)
system.far_mem_ctrl.wrQLenPdf::90                   0                       # What write queue length does an incoming req see (Count)
system.far_mem_ctrl.wrQLenPdf::91                   0                       # What write queue length does an incoming req see (Count)
system.far_mem_ctrl.wrQLenPdf::92                   0                       # What write queue length does an incoming req see (Count)
system.far_mem_ctrl.wrQLenPdf::93                   0                       # What write queue length does an incoming req see (Count)
system.far_mem_ctrl.wrQLenPdf::94                   0                       # What write queue length does an incoming req see (Count)
system.far_mem_ctrl.wrQLenPdf::95                   0                       # What write queue length does an incoming req see (Count)
system.far_mem_ctrl.wrQLenPdf::96                   0                       # What write queue length does an incoming req see (Count)
system.far_mem_ctrl.wrQLenPdf::97                   0                       # What write queue length does an incoming req see (Count)
system.far_mem_ctrl.wrQLenPdf::98                   0                       # What write queue length does an incoming req see (Count)
system.far_mem_ctrl.wrQLenPdf::99                   0                       # What write queue length does an incoming req see (Count)
system.far_mem_ctrl.wrQLenPdf::100                  0                       # What write queue length does an incoming req see (Count)
system.far_mem_ctrl.wrQLenPdf::101                  0                       # What write queue length does an incoming req see (Count)
system.far_mem_ctrl.wrQLenPdf::102                  0                       # What write queue length does an incoming req see (Count)
system.far_mem_ctrl.wrQLenPdf::103                  0                       # What write queue length does an incoming req see (Count)
system.far_mem_ctrl.wrQLenPdf::104                  0                       # What write queue length does an incoming req see (Count)
system.far_mem_ctrl.wrQLenPdf::105                  0                       # What write queue length does an incoming req see (Count)
system.far_mem_ctrl.wrQLenPdf::106                  0                       # What write queue length does an incoming req see (Count)
system.far_mem_ctrl.wrQLenPdf::107                  0                       # What write queue length does an incoming req see (Count)
system.far_mem_ctrl.wrQLenPdf::108                  0                       # What write queue length does an incoming req see (Count)
system.far_mem_ctrl.wrQLenPdf::109                  0                       # What write queue length does an incoming req see (Count)
system.far_mem_ctrl.wrQLenPdf::110                  0                       # What write queue length does an incoming req see (Count)
system.far_mem_ctrl.wrQLenPdf::111                  0                       # What write queue length does an incoming req see (Count)
system.far_mem_ctrl.wrQLenPdf::112                  0                       # What write queue length does an incoming req see (Count)
system.far_mem_ctrl.wrQLenPdf::113                  0                       # What write queue length does an incoming req see (Count)
system.far_mem_ctrl.wrQLenPdf::114                  0                       # What write queue length does an incoming req see (Count)
system.far_mem_ctrl.wrQLenPdf::115                  0                       # What write queue length does an incoming req see (Count)
system.far_mem_ctrl.wrQLenPdf::116                  0                       # What write queue length does an incoming req see (Count)
system.far_mem_ctrl.wrQLenPdf::117                  0                       # What write queue length does an incoming req see (Count)
system.far_mem_ctrl.wrQLenPdf::118                  0                       # What write queue length does an incoming req see (Count)
system.far_mem_ctrl.wrQLenPdf::119                  0                       # What write queue length does an incoming req see (Count)
system.far_mem_ctrl.wrQLenPdf::120                  0                       # What write queue length does an incoming req see (Count)
system.far_mem_ctrl.wrQLenPdf::121                  0                       # What write queue length does an incoming req see (Count)
system.far_mem_ctrl.wrQLenPdf::122                  0                       # What write queue length does an incoming req see (Count)
system.far_mem_ctrl.wrQLenPdf::123                  0                       # What write queue length does an incoming req see (Count)
system.far_mem_ctrl.wrQLenPdf::124                  0                       # What write queue length does an incoming req see (Count)
system.far_mem_ctrl.wrQLenPdf::125                  0                       # What write queue length does an incoming req see (Count)
system.far_mem_ctrl.wrQLenPdf::126                  0                       # What write queue length does an incoming req see (Count)
system.far_mem_ctrl.wrQLenPdf::127                  0                       # What write queue length does an incoming req see (Count)
system.far_mem_ctrl.bytesReadWrQ                    0                       # Total number of bytes read from write queue (Byte)
system.far_mem_ctrl.bytesReadSys                    0                       # Total read bytes from the system interface side (Byte)
system.far_mem_ctrl.bytesWrittenSys                 0                       # Total written bytes from the system interface side (Byte)
system.far_mem_ctrl.avgRdBWSys             0.00000000                       # Average system read bandwidth in Byte/s ((Byte/Second))
system.far_mem_ctrl.avgWrBWSys             0.00000000                       # Average system write bandwidth in Byte/s ((Byte/Second))
system.far_mem_ctrl.totGap                          0                       # Total gap between requests (Tick)
system.far_mem_ctrl.avgGap                        nan                       # Average gap between requests ((Tick/Count))
system.far_mem_ctrl.dram.readBursts                 0                       # Number of DRAM read bursts (Count)
system.far_mem_ctrl.dram.writeBursts                0                       # Number of DRAM write bursts (Count)
system.far_mem_ctrl.dram.perBankRdBursts::0            0                       # Per bank write bursts (Count)
system.far_mem_ctrl.dram.perBankRdBursts::1            0                       # Per bank write bursts (Count)
system.far_mem_ctrl.dram.perBankRdBursts::2            0                       # Per bank write bursts (Count)
system.far_mem_ctrl.dram.perBankRdBursts::3            0                       # Per bank write bursts (Count)
system.far_mem_ctrl.dram.perBankRdBursts::4            0                       # Per bank write bursts (Count)
system.far_mem_ctrl.dram.perBankRdBursts::5            0                       # Per bank write bursts (Count)
system.far_mem_ctrl.dram.perBankRdBursts::6            0                       # Per bank write bursts (Count)
system.far_mem_ctrl.dram.perBankRdBursts::7            0                       # Per bank write bursts (Count)
system.far_mem_ctrl.dram.perBankRdBursts::8            0                       # Per bank write bursts (Count)
system.far_mem_ctrl.dram.perBankRdBursts::9            0                       # Per bank write bursts (Count)
system.far_mem_ctrl.dram.perBankRdBursts::10            0                       # Per bank write bursts (Count)
system.far_mem_ctrl.dram.perBankRdBursts::11            0                       # Per bank write bursts (Count)
system.far_mem_ctrl.dram.perBankRdBursts::12            0                       # Per bank write bursts (Count)
system.far_mem_ctrl.dram.perBankRdBursts::13            0                       # Per bank write bursts (Count)
system.far_mem_ctrl.dram.perBankRdBursts::14            0                       # Per bank write bursts (Count)
system.far_mem_ctrl.dram.perBankRdBursts::15            0                       # Per bank write bursts (Count)
system.far_mem_ctrl.dram.perBankRdBursts::16            0                       # Per bank write bursts (Count)
system.far_mem_ctrl.dram.perBankRdBursts::17            0                       # Per bank write bursts (Count)
system.far_mem_ctrl.dram.perBankRdBursts::18            0                       # Per bank write bursts (Count)
system.far_mem_ctrl.dram.perBankRdBursts::19            0                       # Per bank write bursts (Count)
system.far_mem_ctrl.dram.perBankRdBursts::20            0                       # Per bank write bursts (Count)
system.far_mem_ctrl.dram.perBankRdBursts::21            0                       # Per bank write bursts (Count)
system.far_mem_ctrl.dram.perBankRdBursts::22            0                       # Per bank write bursts (Count)
system.far_mem_ctrl.dram.perBankRdBursts::23            0                       # Per bank write bursts (Count)
system.far_mem_ctrl.dram.perBankRdBursts::24            0                       # Per bank write bursts (Count)
system.far_mem_ctrl.dram.perBankRdBursts::25            0                       # Per bank write bursts (Count)
system.far_mem_ctrl.dram.perBankRdBursts::26            0                       # Per bank write bursts (Count)
system.far_mem_ctrl.dram.perBankRdBursts::27            0                       # Per bank write bursts (Count)
system.far_mem_ctrl.dram.perBankRdBursts::28            0                       # Per bank write bursts (Count)
system.far_mem_ctrl.dram.perBankRdBursts::29            0                       # Per bank write bursts (Count)
system.far_mem_ctrl.dram.perBankRdBursts::30            0                       # Per bank write bursts (Count)
system.far_mem_ctrl.dram.perBankRdBursts::31            0                       # Per bank write bursts (Count)
system.far_mem_ctrl.dram.perBankWrBursts::0            0                       # Per bank write bursts (Count)
system.far_mem_ctrl.dram.perBankWrBursts::1            0                       # Per bank write bursts (Count)
system.far_mem_ctrl.dram.perBankWrBursts::2            0                       # Per bank write bursts (Count)
system.far_mem_ctrl.dram.perBankWrBursts::3            0                       # Per bank write bursts (Count)
system.far_mem_ctrl.dram.perBankWrBursts::4            0                       # Per bank write bursts (Count)
system.far_mem_ctrl.dram.perBankWrBursts::5            0                       # Per bank write bursts (Count)
system.far_mem_ctrl.dram.perBankWrBursts::6            0                       # Per bank write bursts (Count)
system.far_mem_ctrl.dram.perBankWrBursts::7            0                       # Per bank write bursts (Count)
system.far_mem_ctrl.dram.perBankWrBursts::8            0                       # Per bank write bursts (Count)
system.far_mem_ctrl.dram.perBankWrBursts::9            0                       # Per bank write bursts (Count)
system.far_mem_ctrl.dram.perBankWrBursts::10            0                       # Per bank write bursts (Count)
system.far_mem_ctrl.dram.perBankWrBursts::11            0                       # Per bank write bursts (Count)
system.far_mem_ctrl.dram.perBankWrBursts::12            0                       # Per bank write bursts (Count)
system.far_mem_ctrl.dram.perBankWrBursts::13            0                       # Per bank write bursts (Count)
system.far_mem_ctrl.dram.perBankWrBursts::14            0                       # Per bank write bursts (Count)
system.far_mem_ctrl.dram.perBankWrBursts::15            0                       # Per bank write bursts (Count)
system.far_mem_ctrl.dram.perBankWrBursts::16            0                       # Per bank write bursts (Count)
system.far_mem_ctrl.dram.perBankWrBursts::17            0                       # Per bank write bursts (Count)
system.far_mem_ctrl.dram.perBankWrBursts::18            0                       # Per bank write bursts (Count)
system.far_mem_ctrl.dram.perBankWrBursts::19            0                       # Per bank write bursts (Count)
system.far_mem_ctrl.dram.perBankWrBursts::20            0                       # Per bank write bursts (Count)
system.far_mem_ctrl.dram.perBankWrBursts::21            0                       # Per bank write bursts (Count)
system.far_mem_ctrl.dram.perBankWrBursts::22            0                       # Per bank write bursts (Count)
system.far_mem_ctrl.dram.perBankWrBursts::23            0                       # Per bank write bursts (Count)
system.far_mem_ctrl.dram.perBankWrBursts::24            0                       # Per bank write bursts (Count)
system.far_mem_ctrl.dram.perBankWrBursts::25            0                       # Per bank write bursts (Count)
system.far_mem_ctrl.dram.perBankWrBursts::26            0                       # Per bank write bursts (Count)
system.far_mem_ctrl.dram.perBankWrBursts::27            0                       # Per bank write bursts (Count)
system.far_mem_ctrl.dram.perBankWrBursts::28            0                       # Per bank write bursts (Count)
system.far_mem_ctrl.dram.perBankWrBursts::29            0                       # Per bank write bursts (Count)
system.far_mem_ctrl.dram.perBankWrBursts::30            0                       # Per bank write bursts (Count)
system.far_mem_ctrl.dram.perBankWrBursts::31            0                       # Per bank write bursts (Count)
system.far_mem_ctrl.dram.totQLat                    0                       # Total ticks spent queuing (Tick)
system.far_mem_ctrl.dram.totBusLat                  0                       # Total ticks spent in databus transfers (Tick)
system.far_mem_ctrl.dram.totMemAccLat               0                       # Total ticks spent from burst creation until serviced by the DRAM (Tick)
system.far_mem_ctrl.dram.avgQLat                  nan                       # Average queueing delay per DRAM burst ((Tick/Count))
system.far_mem_ctrl.dram.avgBusLat                nan                       # Average bus latency per DRAM burst ((Tick/Count))
system.far_mem_ctrl.dram.avgMemAccLat             nan                       # Average memory access latency per DRAM burst ((Tick/Count))
system.far_mem_ctrl.dram.readRowHits                0                       # Number of row buffer hits during reads (Count)
system.far_mem_ctrl.dram.writeRowHits               0                       # Number of row buffer hits during writes (Count)
system.far_mem_ctrl.dram.readRowHitRate           nan                       # Row buffer hit rate for reads (Ratio)
system.far_mem_ctrl.dram.writeRowHitRate          nan                       # Row buffer hit rate for writes (Ratio)
system.far_mem_ctrl.dram.bytesRead                  0                       # Total bytes read (Byte)
system.far_mem_ctrl.dram.bytesWritten               0                       # Total bytes written (Byte)
system.far_mem_ctrl.dram.avgRdBW                    0                       # Average DRAM read bandwidth in MiBytes/s ((Byte/Second))
system.far_mem_ctrl.dram.avgWrBW                    0                       # Average DRAM write bandwidth in MiBytes/s ((Byte/Second))
system.far_mem_ctrl.dram.peakBW              19207.00                       # Theoretical peak bandwidth in MiByte/s ((Byte/Second))
system.far_mem_ctrl.dram.busUtil                 0.00                       # Data bus utilization in percentage (Ratio)
system.far_mem_ctrl.dram.busUtilRead             0.00                       # Data bus utilization in percentage for reads (Ratio)
system.far_mem_ctrl.dram.busUtilWrite            0.00                       # Data bus utilization in percentage for writes (Ratio)
system.far_mem_ctrl.dram.pageHitRate              nan                       # Row buffer hit rate, read and write combined (Ratio)
system.far_mem_ctrl.dram.power_state.pwrStateResidencyTicks::UNDEFINED  20000601000                       # Cumulative time (in ticks) in various power states (Tick)
system.far_mem_ctrl.dram.rank0.actEnergy            0                       # Energy for activate commands per rank (pJ) (Joule)
system.far_mem_ctrl.dram.rank0.preEnergy            0                       # Energy for precharge commands per rank (pJ) (Joule)
system.far_mem_ctrl.dram.rank0.readEnergy            0                       # Energy for read commands per rank (pJ) (Joule)
system.far_mem_ctrl.dram.rank0.writeEnergy            0                       # Energy for write commands per rank (pJ) (Joule)
system.far_mem_ctrl.dram.rank0.refreshEnergy 3557649746.649648                       # Energy for refresh commands per rank (pJ) (Joule)
system.far_mem_ctrl.dram.rank0.actBackEnergy 734236363.929612                       # Energy for active background per rank (pJ) (Joule)
system.far_mem_ctrl.dram.rank0.preBackEnergy 12492233682.969830                       # Energy for precharge background per rank (pJ) (Joule)
system.far_mem_ctrl.dram.rank0.actPowerDownEnergy            0                       # Energy for active power-down per rank (pJ) (Joule)
system.far_mem_ctrl.dram.rank0.prePowerDownEnergy            0                       # Energy for precharge power-down per rank (pJ) (Joule)
system.far_mem_ctrl.dram.rank0.selfRefreshEnergy            0                       # Energy for self refresh per rank (pJ) (Joule)
system.far_mem_ctrl.dram.rank0.totalEnergy 16784119793.548483                       # Total energy per rank (pJ) (Joule)
system.far_mem_ctrl.dram.rank0.averagePower   839.180772                       # Core power per rank (mW) (Watt)
system.far_mem_ctrl.dram.rank0.totalIdleTime            0                       # Total Idle time Per DRAM Rank (Tick)
system.far_mem_ctrl.dram.rank0.pwrStateTime::IDLE  19101801000                       # Time in different power states (Tick)
system.far_mem_ctrl.dram.rank0.pwrStateTime::REF    898800000                       # Time in different power states (Tick)
system.far_mem_ctrl.dram.rank0.pwrStateTime::SREF            0                       # Time in different power states (Tick)
system.far_mem_ctrl.dram.rank0.pwrStateTime::PRE_PDN            0                       # Time in different power states (Tick)
system.far_mem_ctrl.dram.rank0.pwrStateTime::ACT            0                       # Time in different power states (Tick)
system.far_mem_ctrl.dram.rank0.pwrStateTime::ACT_PDN            0                       # Time in different power states (Tick)
system.far_mem_ctrl.dram.rank1.actEnergy            0                       # Energy for activate commands per rank (pJ) (Joule)
system.far_mem_ctrl.dram.rank1.preEnergy            0                       # Energy for precharge commands per rank (pJ) (Joule)
system.far_mem_ctrl.dram.rank1.readEnergy            0                       # Energy for read commands per rank (pJ) (Joule)
system.far_mem_ctrl.dram.rank1.writeEnergy            0                       # Energy for write commands per rank (pJ) (Joule)
system.far_mem_ctrl.dram.rank1.refreshEnergy 3557649746.649648                       # Energy for refresh commands per rank (pJ) (Joule)
system.far_mem_ctrl.dram.rank1.actBackEnergy 734236363.929612                       # Energy for active background per rank (pJ) (Joule)
system.far_mem_ctrl.dram.rank1.preBackEnergy 12492233682.969830                       # Energy for precharge background per rank (pJ) (Joule)
system.far_mem_ctrl.dram.rank1.actPowerDownEnergy            0                       # Energy for active power-down per rank (pJ) (Joule)
system.far_mem_ctrl.dram.rank1.prePowerDownEnergy            0                       # Energy for precharge power-down per rank (pJ) (Joule)
system.far_mem_ctrl.dram.rank1.selfRefreshEnergy            0                       # Energy for self refresh per rank (pJ) (Joule)
system.far_mem_ctrl.dram.rank1.totalEnergy 16784119793.548483                       # Total energy per rank (pJ) (Joule)
system.far_mem_ctrl.dram.rank1.averagePower   839.180772                       # Core power per rank (mW) (Watt)
system.far_mem_ctrl.dram.rank1.totalIdleTime            0                       # Total Idle time Per DRAM Rank (Tick)
system.far_mem_ctrl.dram.rank1.pwrStateTime::IDLE  19101801000                       # Time in different power states (Tick)
system.far_mem_ctrl.dram.rank1.pwrStateTime::REF    898800000                       # Time in different power states (Tick)
system.far_mem_ctrl.dram.rank1.pwrStateTime::SREF            0                       # Time in different power states (Tick)
system.far_mem_ctrl.dram.rank1.pwrStateTime::PRE_PDN            0                       # Time in different power states (Tick)
system.far_mem_ctrl.dram.rank1.pwrStateTime::ACT            0                       # Time in different power states (Tick)
system.far_mem_ctrl.dram.rank1.pwrStateTime::ACT_PDN            0                       # Time in different power states (Tick)
system.far_mem_ctrl.power_state.pwrStateResidencyTicks::UNDEFINED  20000601000                       # Cumulative time (in ticks) in various power states (Tick)
system.generator.numSuppressed                      0                       # Number of suppressed packets to non-memory space (Count)
system.generator.numPackets                   3563868                       # Number of packets generated (Count)
system.generator.numRetries                   3560034                       # Number of retries (Count)
system.generator.retryTicks               19987235878                       # Time spent waiting due to back-pressure (Tick)
system.generator.bytesRead                          0                       # Number of bytes read (Byte)
system.generator.bytesWritten               228087488                       # Number of bytes written (Byte)
system.generator.totalReadLatency                   0                       # Total latency of read requests (Tick)
system.generator.totalWriteLatency        91900250799                       # Total latency of write requests (Tick)
system.generator.totalReads                         0                       # Total num of reads (Count)
system.generator.totalWrites                  3563867                       # Total num of writes (Count)
system.generator.avgReadLatency                   nan                       # Avg latency of read requests ((Tick/Count))
system.generator.avgWriteLatency         25786.666786                       # Avg latency of write requests ((Tick/Count))
system.generator.readBW                             0                       # Read bandwidth ((Byte/Second))
system.generator.writeBW                 11404031708.847149                       # Write bandwidth ((Byte/Second))
system.generator.power_state.pwrStateResidencyTicks::UNDEFINED  20000601000                       # Cumulative time (in ticks) in various power states (Tick)
system.loc_mem_ctrl.avgPriority_writebacks::samples  14254946.00                       # Average QoS priority value for accepted requests (Count)
system.loc_mem_ctrl.priorityMinLatency   0.000000025000                       # per QoS priority minimum request to response latency (Second)
system.loc_mem_ctrl.priorityMaxLatency   0.000003264000                       # per QoS priority maximum request to response latency (Second)
system.loc_mem_ctrl.numReadWriteTurnArounds            0                       # Number of turnarounds from READ to WRITE (Count)
system.loc_mem_ctrl.numWriteReadTurnArounds            0                       # Number of turnarounds from WRITE to READ (Count)
system.loc_mem_ctrl.numStayReadState         14375643                       # Number of times bus staying in READ state (Count)
system.loc_mem_ctrl.numStayWriteState               0                       # Number of times bus staying in WRITE state (Count)
system.loc_mem_ctrl.readReqs                  3563868                       # Number of read requests accepted (Count)
system.loc_mem_ctrl.writeReqs                 3563614                       # Number of write requests accepted (Count)
system.loc_mem_ctrl.readBursts                7127736                       # Number of controller read bursts, including those serviced by the write queue (Count)
system.loc_mem_ctrl.writeBursts               7127228                       # Number of controller write bursts, including those merged in the write queue (Count)
system.loc_mem_ctrl.servicedByWrQ                  18                       # Number of controller read bursts serviced by the write queue (Count)
system.loc_mem_ctrl.mergedWrBursts                  0                       # Number of controller write bursts merged with an existing one (Count)
system.loc_mem_ctrl.avgRdQLen                   91.43                       # Average read queue length when enqueuing ((Count/Tick))
system.loc_mem_ctrl.avgWrQLen                   81.77                       # Average write queue length when enqueuing ((Count/Tick))
system.loc_mem_ctrl.numRdRetry                9433270                       # Number of times read queue was full causing retry (Count)
system.loc_mem_ctrl.numWrRetry               10596756                       # Number of times write queue was full causing retry (Count)
system.loc_mem_ctrl.readPktSize::0                  0                       # Read request sizes (log2) (Count)
system.loc_mem_ctrl.readPktSize::1                  0                       # Read request sizes (log2) (Count)
system.loc_mem_ctrl.readPktSize::2                  0                       # Read request sizes (log2) (Count)
system.loc_mem_ctrl.readPktSize::3                  0                       # Read request sizes (log2) (Count)
system.loc_mem_ctrl.readPktSize::4                  0                       # Read request sizes (log2) (Count)
system.loc_mem_ctrl.readPktSize::5            7127736                       # Read request sizes (log2) (Count)
system.loc_mem_ctrl.readPktSize::6                  0                       # Read request sizes (log2) (Count)
system.loc_mem_ctrl.writePktSize::0                 0                       # Write request sizes (log2) (Count)
system.loc_mem_ctrl.writePktSize::1                 0                       # Write request sizes (log2) (Count)
system.loc_mem_ctrl.writePktSize::2                 0                       # Write request sizes (log2) (Count)
system.loc_mem_ctrl.writePktSize::3                 0                       # Write request sizes (log2) (Count)
system.loc_mem_ctrl.writePktSize::4                 0                       # Write request sizes (log2) (Count)
system.loc_mem_ctrl.writePktSize::5           7127228                       # Write request sizes (log2) (Count)
system.loc_mem_ctrl.writePktSize::6                 0                       # Write request sizes (log2) (Count)
system.loc_mem_ctrl.rdQLenPdf::0                 1696                       # What read queue length does an incoming req see (Count)
system.loc_mem_ctrl.rdQLenPdf::1                 1982                       # What read queue length does an incoming req see (Count)
system.loc_mem_ctrl.rdQLenPdf::2                 7008                       # What read queue length does an incoming req see (Count)
system.loc_mem_ctrl.rdQLenPdf::3                 8490                       # What read queue length does an incoming req see (Count)
system.loc_mem_ctrl.rdQLenPdf::4                 9512                       # What read queue length does an incoming req see (Count)
system.loc_mem_ctrl.rdQLenPdf::5                10696                       # What read queue length does an incoming req see (Count)
system.loc_mem_ctrl.rdQLenPdf::6                10434                       # What read queue length does an incoming req see (Count)
system.loc_mem_ctrl.rdQLenPdf::7                10673                       # What read queue length does an incoming req see (Count)
system.loc_mem_ctrl.rdQLenPdf::8                10718                       # What read queue length does an incoming req see (Count)
system.loc_mem_ctrl.rdQLenPdf::9                10980                       # What read queue length does an incoming req see (Count)
system.loc_mem_ctrl.rdQLenPdf::10               10961                       # What read queue length does an incoming req see (Count)
system.loc_mem_ctrl.rdQLenPdf::11               11371                       # What read queue length does an incoming req see (Count)
system.loc_mem_ctrl.rdQLenPdf::12               11580                       # What read queue length does an incoming req see (Count)
system.loc_mem_ctrl.rdQLenPdf::13               11842                       # What read queue length does an incoming req see (Count)
system.loc_mem_ctrl.rdQLenPdf::14               11642                       # What read queue length does an incoming req see (Count)
system.loc_mem_ctrl.rdQLenPdf::15               11696                       # What read queue length does an incoming req see (Count)
system.loc_mem_ctrl.rdQLenPdf::16               12440                       # What read queue length does an incoming req see (Count)
system.loc_mem_ctrl.rdQLenPdf::17               12633                       # What read queue length does an incoming req see (Count)
system.loc_mem_ctrl.rdQLenPdf::18               12634                       # What read queue length does an incoming req see (Count)
system.loc_mem_ctrl.rdQLenPdf::19               12966                       # What read queue length does an incoming req see (Count)
system.loc_mem_ctrl.rdQLenPdf::20               12716                       # What read queue length does an incoming req see (Count)
system.loc_mem_ctrl.rdQLenPdf::21               12833                       # What read queue length does an incoming req see (Count)
system.loc_mem_ctrl.rdQLenPdf::22               12825                       # What read queue length does an incoming req see (Count)
system.loc_mem_ctrl.rdQLenPdf::23               12862                       # What read queue length does an incoming req see (Count)
system.loc_mem_ctrl.rdQLenPdf::24               12700                       # What read queue length does an incoming req see (Count)
system.loc_mem_ctrl.rdQLenPdf::25               12762                       # What read queue length does an incoming req see (Count)
system.loc_mem_ctrl.rdQLenPdf::26               12703                       # What read queue length does an incoming req see (Count)
system.loc_mem_ctrl.rdQLenPdf::27               12604                       # What read queue length does an incoming req see (Count)
system.loc_mem_ctrl.rdQLenPdf::28               12623                       # What read queue length does an incoming req see (Count)
system.loc_mem_ctrl.rdQLenPdf::29               12863                       # What read queue length does an incoming req see (Count)
system.loc_mem_ctrl.rdQLenPdf::30               12890                       # What read queue length does an incoming req see (Count)
system.loc_mem_ctrl.rdQLenPdf::31               12740                       # What read queue length does an incoming req see (Count)
system.loc_mem_ctrl.rdQLenPdf::32               12922                       # What read queue length does an incoming req see (Count)
system.loc_mem_ctrl.rdQLenPdf::33               13010                       # What read queue length does an incoming req see (Count)
system.loc_mem_ctrl.rdQLenPdf::34               13069                       # What read queue length does an incoming req see (Count)
system.loc_mem_ctrl.rdQLenPdf::35               13210                       # What read queue length does an incoming req see (Count)
system.loc_mem_ctrl.rdQLenPdf::36               13183                       # What read queue length does an incoming req see (Count)
system.loc_mem_ctrl.rdQLenPdf::37               13324                       # What read queue length does an incoming req see (Count)
system.loc_mem_ctrl.rdQLenPdf::38               13335                       # What read queue length does an incoming req see (Count)
system.loc_mem_ctrl.rdQLenPdf::39               13443                       # What read queue length does an incoming req see (Count)
system.loc_mem_ctrl.rdQLenPdf::40               25421                       # What read queue length does an incoming req see (Count)
system.loc_mem_ctrl.rdQLenPdf::41               30106                       # What read queue length does an incoming req see (Count)
system.loc_mem_ctrl.rdQLenPdf::42               28551                       # What read queue length does an incoming req see (Count)
system.loc_mem_ctrl.rdQLenPdf::43               29109                       # What read queue length does an incoming req see (Count)
system.loc_mem_ctrl.rdQLenPdf::44               31068                       # What read queue length does an incoming req see (Count)
system.loc_mem_ctrl.rdQLenPdf::45               30764                       # What read queue length does an incoming req see (Count)
system.loc_mem_ctrl.rdQLenPdf::46               31347                       # What read queue length does an incoming req see (Count)
system.loc_mem_ctrl.rdQLenPdf::47               32235                       # What read queue length does an incoming req see (Count)
system.loc_mem_ctrl.rdQLenPdf::48               32439                       # What read queue length does an incoming req see (Count)
system.loc_mem_ctrl.rdQLenPdf::49               32992                       # What read queue length does an incoming req see (Count)
system.loc_mem_ctrl.rdQLenPdf::50               33987                       # What read queue length does an incoming req see (Count)
system.loc_mem_ctrl.rdQLenPdf::51               34444                       # What read queue length does an incoming req see (Count)
system.loc_mem_ctrl.rdQLenPdf::52               35406                       # What read queue length does an incoming req see (Count)
system.loc_mem_ctrl.rdQLenPdf::53               35870                       # What read queue length does an incoming req see (Count)
system.loc_mem_ctrl.rdQLenPdf::54               36804                       # What read queue length does an incoming req see (Count)
system.loc_mem_ctrl.rdQLenPdf::55               37594                       # What read queue length does an incoming req see (Count)
system.loc_mem_ctrl.rdQLenPdf::56               38968                       # What read queue length does an incoming req see (Count)
system.loc_mem_ctrl.rdQLenPdf::57               40177                       # What read queue length does an incoming req see (Count)
system.loc_mem_ctrl.rdQLenPdf::58               41315                       # What read queue length does an incoming req see (Count)
system.loc_mem_ctrl.rdQLenPdf::59               42676                       # What read queue length does an incoming req see (Count)
system.loc_mem_ctrl.rdQLenPdf::60               44402                       # What read queue length does an incoming req see (Count)
system.loc_mem_ctrl.rdQLenPdf::61               45880                       # What read queue length does an incoming req see (Count)
system.loc_mem_ctrl.rdQLenPdf::62               67791                       # What read queue length does an incoming req see (Count)
system.loc_mem_ctrl.rdQLenPdf::63               73386                       # What read queue length does an incoming req see (Count)
system.loc_mem_ctrl.rdQLenPdf::64               75802                       # What read queue length does an incoming req see (Count)
system.loc_mem_ctrl.rdQLenPdf::65               81680                       # What read queue length does an incoming req see (Count)
system.loc_mem_ctrl.rdQLenPdf::66               83502                       # What read queue length does an incoming req see (Count)
system.loc_mem_ctrl.rdQLenPdf::67               91311                       # What read queue length does an incoming req see (Count)
system.loc_mem_ctrl.rdQLenPdf::68               94713                       # What read queue length does an incoming req see (Count)
system.loc_mem_ctrl.rdQLenPdf::69               99786                       # What read queue length does an incoming req see (Count)
system.loc_mem_ctrl.rdQLenPdf::70              106087                       # What read queue length does an incoming req see (Count)
system.loc_mem_ctrl.rdQLenPdf::71              110889                       # What read queue length does an incoming req see (Count)
system.loc_mem_ctrl.rdQLenPdf::72              116675                       # What read queue length does an incoming req see (Count)
system.loc_mem_ctrl.rdQLenPdf::73              121805                       # What read queue length does an incoming req see (Count)
system.loc_mem_ctrl.rdQLenPdf::74              126672                       # What read queue length does an incoming req see (Count)
system.loc_mem_ctrl.rdQLenPdf::75              130830                       # What read queue length does an incoming req see (Count)
system.loc_mem_ctrl.rdQLenPdf::76              136900                       # What read queue length does an incoming req see (Count)
system.loc_mem_ctrl.rdQLenPdf::77              139723                       # What read queue length does an incoming req see (Count)
system.loc_mem_ctrl.rdQLenPdf::78              143416                       # What read queue length does an incoming req see (Count)
system.loc_mem_ctrl.rdQLenPdf::79              145011                       # What read queue length does an incoming req see (Count)
system.loc_mem_ctrl.rdQLenPdf::80              146695                       # What read queue length does an incoming req see (Count)
system.loc_mem_ctrl.rdQLenPdf::81              147308                       # What read queue length does an incoming req see (Count)
system.loc_mem_ctrl.rdQLenPdf::82              148213                       # What read queue length does an incoming req see (Count)
system.loc_mem_ctrl.rdQLenPdf::83              148765                       # What read queue length does an incoming req see (Count)
system.loc_mem_ctrl.rdQLenPdf::84              148976                       # What read queue length does an incoming req see (Count)
system.loc_mem_ctrl.rdQLenPdf::85              149186                       # What read queue length does an incoming req see (Count)
system.loc_mem_ctrl.rdQLenPdf::86              149019                       # What read queue length does an incoming req see (Count)
system.loc_mem_ctrl.rdQLenPdf::87              148207                       # What read queue length does an incoming req see (Count)
system.loc_mem_ctrl.rdQLenPdf::88              147237                       # What read queue length does an incoming req see (Count)
system.loc_mem_ctrl.rdQLenPdf::89              146153                       # What read queue length does an incoming req see (Count)
system.loc_mem_ctrl.rdQLenPdf::90              145099                       # What read queue length does an incoming req see (Count)
system.loc_mem_ctrl.rdQLenPdf::91              144049                       # What read queue length does an incoming req see (Count)
system.loc_mem_ctrl.rdQLenPdf::92              143063                       # What read queue length does an incoming req see (Count)
system.loc_mem_ctrl.rdQLenPdf::93              142311                       # What read queue length does an incoming req see (Count)
system.loc_mem_ctrl.rdQLenPdf::94              140785                       # What read queue length does an incoming req see (Count)
system.loc_mem_ctrl.rdQLenPdf::95              139638                       # What read queue length does an incoming req see (Count)
system.loc_mem_ctrl.rdQLenPdf::96              138133                       # What read queue length does an incoming req see (Count)
system.loc_mem_ctrl.rdQLenPdf::97              136555                       # What read queue length does an incoming req see (Count)
system.loc_mem_ctrl.rdQLenPdf::98              134665                       # What read queue length does an incoming req see (Count)
system.loc_mem_ctrl.rdQLenPdf::99              133237                       # What read queue length does an incoming req see (Count)
system.loc_mem_ctrl.rdQLenPdf::100             131724                       # What read queue length does an incoming req see (Count)
system.loc_mem_ctrl.rdQLenPdf::101             129981                       # What read queue length does an incoming req see (Count)
system.loc_mem_ctrl.rdQLenPdf::102             126982                       # What read queue length does an incoming req see (Count)
system.loc_mem_ctrl.rdQLenPdf::103             118596                       # What read queue length does an incoming req see (Count)
system.loc_mem_ctrl.rdQLenPdf::104              93438                       # What read queue length does an incoming req see (Count)
system.loc_mem_ctrl.rdQLenPdf::105              57293                       # What read queue length does an incoming req see (Count)
system.loc_mem_ctrl.rdQLenPdf::106              26823                       # What read queue length does an incoming req see (Count)
system.loc_mem_ctrl.rdQLenPdf::107              23817                       # What read queue length does an incoming req see (Count)
system.loc_mem_ctrl.rdQLenPdf::108              21915                       # What read queue length does an incoming req see (Count)
system.loc_mem_ctrl.rdQLenPdf::109              21390                       # What read queue length does an incoming req see (Count)
system.loc_mem_ctrl.rdQLenPdf::110              20704                       # What read queue length does an incoming req see (Count)
system.loc_mem_ctrl.rdQLenPdf::111              20480                       # What read queue length does an incoming req see (Count)
system.loc_mem_ctrl.rdQLenPdf::112              20315                       # What read queue length does an incoming req see (Count)
system.loc_mem_ctrl.rdQLenPdf::113              20020                       # What read queue length does an incoming req see (Count)
system.loc_mem_ctrl.rdQLenPdf::114              19370                       # What read queue length does an incoming req see (Count)
system.loc_mem_ctrl.rdQLenPdf::115              19169                       # What read queue length does an incoming req see (Count)
system.loc_mem_ctrl.rdQLenPdf::116              18618                       # What read queue length does an incoming req see (Count)
system.loc_mem_ctrl.rdQLenPdf::117              18395                       # What read queue length does an incoming req see (Count)
system.loc_mem_ctrl.rdQLenPdf::118              17999                       # What read queue length does an incoming req see (Count)
system.loc_mem_ctrl.rdQLenPdf::119              17877                       # What read queue length does an incoming req see (Count)
system.loc_mem_ctrl.rdQLenPdf::120              17637                       # What read queue length does an incoming req see (Count)
system.loc_mem_ctrl.rdQLenPdf::121              17334                       # What read queue length does an incoming req see (Count)
system.loc_mem_ctrl.rdQLenPdf::122              16795                       # What read queue length does an incoming req see (Count)
system.loc_mem_ctrl.rdQLenPdf::123              16610                       # What read queue length does an incoming req see (Count)
system.loc_mem_ctrl.rdQLenPdf::124              16095                       # What read queue length does an incoming req see (Count)
system.loc_mem_ctrl.rdQLenPdf::125              15736                       # What read queue length does an incoming req see (Count)
system.loc_mem_ctrl.rdQLenPdf::126              14702                       # What read queue length does an incoming req see (Count)
system.loc_mem_ctrl.rdQLenPdf::127              12504                       # What read queue length does an incoming req see (Count)
system.loc_mem_ctrl.wrQLenPdf::0                 1783                       # What write queue length does an incoming req see (Count)
system.loc_mem_ctrl.wrQLenPdf::1                 2486                       # What write queue length does an incoming req see (Count)
system.loc_mem_ctrl.wrQLenPdf::2                 2603                       # What write queue length does an incoming req see (Count)
system.loc_mem_ctrl.wrQLenPdf::3                 3174                       # What write queue length does an incoming req see (Count)
system.loc_mem_ctrl.wrQLenPdf::4                 3435                       # What write queue length does an incoming req see (Count)
system.loc_mem_ctrl.wrQLenPdf::5                 3951                       # What write queue length does an incoming req see (Count)
system.loc_mem_ctrl.wrQLenPdf::6                 4103                       # What write queue length does an incoming req see (Count)
system.loc_mem_ctrl.wrQLenPdf::7                 4536                       # What write queue length does an incoming req see (Count)
system.loc_mem_ctrl.wrQLenPdf::8                 4858                       # What write queue length does an incoming req see (Count)
system.loc_mem_ctrl.wrQLenPdf::9                 5298                       # What write queue length does an incoming req see (Count)
system.loc_mem_ctrl.wrQLenPdf::10                5380                       # What write queue length does an incoming req see (Count)
system.loc_mem_ctrl.wrQLenPdf::11                5742                       # What write queue length does an incoming req see (Count)
system.loc_mem_ctrl.wrQLenPdf::12                6025                       # What write queue length does an incoming req see (Count)
system.loc_mem_ctrl.wrQLenPdf::13                6337                       # What write queue length does an incoming req see (Count)
system.loc_mem_ctrl.wrQLenPdf::14                6535                       # What write queue length does an incoming req see (Count)
system.loc_mem_ctrl.wrQLenPdf::15                6759                       # What write queue length does an incoming req see (Count)
system.loc_mem_ctrl.wrQLenPdf::16                7061                       # What write queue length does an incoming req see (Count)
system.loc_mem_ctrl.wrQLenPdf::17                7403                       # What write queue length does an incoming req see (Count)
system.loc_mem_ctrl.wrQLenPdf::18                7571                       # What write queue length does an incoming req see (Count)
system.loc_mem_ctrl.wrQLenPdf::19                7841                       # What write queue length does an incoming req see (Count)
system.loc_mem_ctrl.wrQLenPdf::20                8183                       # What write queue length does an incoming req see (Count)
system.loc_mem_ctrl.wrQLenPdf::21                8358                       # What write queue length does an incoming req see (Count)
system.loc_mem_ctrl.wrQLenPdf::22                8473                       # What write queue length does an incoming req see (Count)
system.loc_mem_ctrl.wrQLenPdf::23                8696                       # What write queue length does an incoming req see (Count)
system.loc_mem_ctrl.wrQLenPdf::24                9136                       # What write queue length does an incoming req see (Count)
system.loc_mem_ctrl.wrQLenPdf::25                9380                       # What write queue length does an incoming req see (Count)
system.loc_mem_ctrl.wrQLenPdf::26                9569                       # What write queue length does an incoming req see (Count)
system.loc_mem_ctrl.wrQLenPdf::27                9799                       # What write queue length does an incoming req see (Count)
system.loc_mem_ctrl.wrQLenPdf::28               10139                       # What write queue length does an incoming req see (Count)
system.loc_mem_ctrl.wrQLenPdf::29               10271                       # What write queue length does an incoming req see (Count)
system.loc_mem_ctrl.wrQLenPdf::30               10517                       # What write queue length does an incoming req see (Count)
system.loc_mem_ctrl.wrQLenPdf::31               10814                       # What write queue length does an incoming req see (Count)
system.loc_mem_ctrl.wrQLenPdf::32               11216                       # What write queue length does an incoming req see (Count)
system.loc_mem_ctrl.wrQLenPdf::33               11496                       # What write queue length does an incoming req see (Count)
system.loc_mem_ctrl.wrQLenPdf::34               11582                       # What write queue length does an incoming req see (Count)
system.loc_mem_ctrl.wrQLenPdf::35               11701                       # What write queue length does an incoming req see (Count)
system.loc_mem_ctrl.wrQLenPdf::36               12099                       # What write queue length does an incoming req see (Count)
system.loc_mem_ctrl.wrQLenPdf::37               12131                       # What write queue length does an incoming req see (Count)
system.loc_mem_ctrl.wrQLenPdf::38               12294                       # What write queue length does an incoming req see (Count)
system.loc_mem_ctrl.wrQLenPdf::39               12481                       # What write queue length does an incoming req see (Count)
system.loc_mem_ctrl.wrQLenPdf::40               12861                       # What write queue length does an incoming req see (Count)
system.loc_mem_ctrl.wrQLenPdf::41               13032                       # What write queue length does an incoming req see (Count)
system.loc_mem_ctrl.wrQLenPdf::42               13307                       # What write queue length does an incoming req see (Count)
system.loc_mem_ctrl.wrQLenPdf::43               13595                       # What write queue length does an incoming req see (Count)
system.loc_mem_ctrl.wrQLenPdf::44               13997                       # What write queue length does an incoming req see (Count)
system.loc_mem_ctrl.wrQLenPdf::45               14214                       # What write queue length does an incoming req see (Count)
system.loc_mem_ctrl.wrQLenPdf::46               14382                       # What write queue length does an incoming req see (Count)
system.loc_mem_ctrl.wrQLenPdf::47               14459                       # What write queue length does an incoming req see (Count)
system.loc_mem_ctrl.wrQLenPdf::48               14762                       # What write queue length does an incoming req see (Count)
system.loc_mem_ctrl.wrQLenPdf::49               14833                       # What write queue length does an incoming req see (Count)
system.loc_mem_ctrl.wrQLenPdf::50               14808                       # What write queue length does an incoming req see (Count)
system.loc_mem_ctrl.wrQLenPdf::51               14918                       # What write queue length does an incoming req see (Count)
system.loc_mem_ctrl.wrQLenPdf::52               15254                       # What write queue length does an incoming req see (Count)
system.loc_mem_ctrl.wrQLenPdf::53               15275                       # What write queue length does an incoming req see (Count)
system.loc_mem_ctrl.wrQLenPdf::54               15336                       # What write queue length does an incoming req see (Count)
system.loc_mem_ctrl.wrQLenPdf::55               15389                       # What write queue length does an incoming req see (Count)
system.loc_mem_ctrl.wrQLenPdf::56               16073                       # What write queue length does an incoming req see (Count)
system.loc_mem_ctrl.wrQLenPdf::57               16489                       # What write queue length does an incoming req see (Count)
system.loc_mem_ctrl.wrQLenPdf::58               17077                       # What write queue length does an incoming req see (Count)
system.loc_mem_ctrl.wrQLenPdf::59               17576                       # What write queue length does an incoming req see (Count)
system.loc_mem_ctrl.wrQLenPdf::60               17633                       # What write queue length does an incoming req see (Count)
system.loc_mem_ctrl.wrQLenPdf::61               18188                       # What write queue length does an incoming req see (Count)
system.loc_mem_ctrl.wrQLenPdf::62              419361                       # What write queue length does an incoming req see (Count)
system.loc_mem_ctrl.wrQLenPdf::63              468256                       # What write queue length does an incoming req see (Count)
system.loc_mem_ctrl.wrQLenPdf::64               90103                       # What write queue length does an incoming req see (Count)
system.loc_mem_ctrl.wrQLenPdf::65               77651                       # What write queue length does an incoming req see (Count)
system.loc_mem_ctrl.wrQLenPdf::66               86927                       # What write queue length does an incoming req see (Count)
system.loc_mem_ctrl.wrQLenPdf::67               87348                       # What write queue length does an incoming req see (Count)
system.loc_mem_ctrl.wrQLenPdf::68               79363                       # What write queue length does an incoming req see (Count)
system.loc_mem_ctrl.wrQLenPdf::69               79274                       # What write queue length does an incoming req see (Count)
system.loc_mem_ctrl.wrQLenPdf::70               99533                       # What write queue length does an incoming req see (Count)
system.loc_mem_ctrl.wrQLenPdf::71               97661                       # What write queue length does an incoming req see (Count)
system.loc_mem_ctrl.wrQLenPdf::72              103269                       # What write queue length does an incoming req see (Count)
system.loc_mem_ctrl.wrQLenPdf::73              112741                       # What write queue length does an incoming req see (Count)
system.loc_mem_ctrl.wrQLenPdf::74              125299                       # What write queue length does an incoming req see (Count)
system.loc_mem_ctrl.wrQLenPdf::75              131283                       # What write queue length does an incoming req see (Count)
system.loc_mem_ctrl.wrQLenPdf::76              140775                       # What write queue length does an incoming req see (Count)
[...]
system.loc_mem_ctrl.dram_2.bwTotal::total  11391395289                       # Total bandwidth to/from this memory ((Byte/Second))
system.loc_mem_ctrl.dram_2.readBursts         3560048                       # Number of DRAM read bursts (Count)
system.loc_mem_ctrl.dram_2.writeBursts        3559784                       # Number of DRAM write bursts (Count)
system.loc_mem_ctrl.dram_2.perBankRdBursts::0       221292                       # Per bank write bursts (Count)
system.loc_mem_ctrl.dram_2.perBankRdBursts::1       223556                       # Per bank write bursts (Count)
system.loc_mem_ctrl.dram_2.perBankRdBursts::2       222910                       # Per bank write bursts (Count)
system.loc_mem_ctrl.dram_2.perBankRdBursts::3       222194                       # Per bank write bursts (Count)
system.loc_mem_ctrl.dram_2.perBankRdBursts::4       223008                       # Per bank write bursts (Count)
system.loc_mem_ctrl.dram_2.perBankRdBursts::5       222726                       # Per bank write bursts (Count)
system.loc_mem_ctrl.dram_2.perBankRdBursts::6       222450                       # Per bank write bursts (Count)
system.loc_mem_ctrl.dram_2.perBankRdBursts::7       222330                       # Per bank write bursts (Count)
system.loc_mem_ctrl.dram_2.perBankRdBursts::8       223086                       # Per bank write bursts (Count)
system.loc_mem_ctrl.dram_2.perBankRdBursts::9       221818                       # Per bank write bursts (Count)
system.loc_mem_ctrl.dram_2.perBankRdBursts::10       221904                       # Per bank write bursts (Count)
system.loc_mem_ctrl.dram_2.perBankRdBursts::11       222172                       # Per bank write bursts (Count)
system.loc_mem_ctrl.dram_2.perBankRdBursts::12       222514                       # Per bank write bursts (Count)
system.loc_mem_ctrl.dram_2.perBankRdBursts::13       221690                       # Per bank write bursts (Count)
system.loc_mem_ctrl.dram_2.perBankRdBursts::14       223080                       # Per bank write bursts (Count)
system.loc_mem_ctrl.dram_2.perBankRdBursts::15       223318                       # Per bank write bursts (Count)
system.loc_mem_ctrl.dram_2.perBankWrBursts::0       221278                       # Per bank write bursts (Count)
system.loc_mem_ctrl.dram_2.perBankWrBursts::1       223542                       # Per bank write bursts (Count)
system.loc_mem_ctrl.dram_2.perBankWrBursts::2       222898                       # Per bank write bursts (Count)
system.loc_mem_ctrl.dram_2.perBankWrBursts::3       222180                       # Per bank write bursts (Count)
system.loc_mem_ctrl.dram_2.perBankWrBursts::4       222980                       # Per bank write bursts (Count)
system.loc_mem_ctrl.dram_2.perBankWrBursts::5       222718                       # Per bank write bursts (Count)
system.loc_mem_ctrl.dram_2.perBankWrBursts::6       222426                       # Per bank write bursts (Count)
system.loc_mem_ctrl.dram_2.perBankWrBursts::7       222306                       # Per bank write bursts (Count)
system.loc_mem_ctrl.dram_2.perBankWrBursts::8       223066                       # Per bank write bursts (Count)
system.loc_mem_ctrl.dram_2.perBankWrBursts::9       221808                       # Per bank write bursts (Count)
system.loc_mem_ctrl.dram_2.perBankWrBursts::10       221884                       # Per bank write bursts (Count)
system.loc_mem_ctrl.dram_2.perBankWrBursts::11       222160                       # Per bank write bursts (Count)
system.loc_mem_ctrl.dram_2.perBankWrBursts::12       222504                       # Per bank write bursts (Count)
system.loc_mem_ctrl.dram_2.perBankWrBursts::13       221672                       # Per bank write bursts (Count)
system.loc_mem_ctrl.dram_2.perBankWrBursts::14       223058                       # Per bank write bursts (Count)
system.loc_mem_ctrl.dram_2.perBankWrBursts::15       223304                       # Per bank write bursts (Count)
system.loc_mem_ctrl.dram_2.totQLat       743219889138                       # Total ticks spent queuing (Tick)
system.loc_mem_ctrl.dram_2.totBusLat       7120096000                       # Total ticks spent in databus transfers (Tick)
system.loc_mem_ctrl.dram_2.totMemAccLat  814420849138                       # Total ticks spent from burst creation until serviced by the DRAM (Tick)
system.loc_mem_ctrl.dram_2.avgQLat          208766.82                       # Average queueing delay per DRAM burst ((Tick/Count))
system.loc_mem_ctrl.dram_2.avgBusLat          2000.00                       # Average bus latency per DRAM burst ((Tick/Count))
system.loc_mem_ctrl.dram_2.avgMemAccLat     228766.82                       # Average memory access latency per DRAM burst ((Tick/Count))
system.loc_mem_ctrl.dram_2.readRowHits        1777856                       # Number of row buffer hits during reads (Count)
system.loc_mem_ctrl.dram_2.writeRowHits       1777690                       # Number of row buffer hits during writes (Count)
system.loc_mem_ctrl.dram_2.readRowHitRate        49.94                       # Row buffer hit rate for reads (Ratio)
system.loc_mem_ctrl.dram_2.writeRowHitRate        49.94                       # Row buffer hit rate for writes (Ratio)
system.loc_mem_ctrl.dram_2.bytesPerActivate::samples      3564286                       # Bytes accessed per row activation (Byte)
system.loc_mem_ctrl.dram_2.bytesPerActivate::mean    63.921533                       # Bytes accessed per row activation (Byte)
system.loc_mem_ctrl.dram_2.bytesPerActivate::gmean    63.890829                       # Bytes accessed per row activation (Byte)
system.loc_mem_ctrl.dram_2.bytesPerActivate::stdev     1.603753                       # Bytes accessed per row activation (Byte)
system.loc_mem_ctrl.dram_2.bytesPerActivate::32-47         8818      0.25%      0.25% # Bytes accessed per row activation (Byte)
system.loc_mem_ctrl.dram_2.bytesPerActivate::64-79      3555429     99.75%    100.00% # Bytes accessed per row activation (Byte)
system.loc_mem_ctrl.dram_2.bytesPerActivate::128-143           39      0.00%    100.00% # Bytes accessed per row activation (Byte)
system.loc_mem_ctrl.dram_2.bytesPerActivate::total      3564286                       # Bytes accessed per row activation (Byte)
system.loc_mem_ctrl.dram_2.bytesRead        113921536                       # Total bytes read (Byte)
system.loc_mem_ctrl.dram_2.bytesWritten     113913088                       # Total bytes written (Byte)
system.loc_mem_ctrl.dram_2.avgRdBW        5695.905638                       # Average DRAM read bandwidth in MiBytes/s ((Byte/Second))
system.loc_mem_ctrl.dram_2.avgWrBW        5695.483251                       # Average DRAM write bandwidth in MiBytes/s ((Byte/Second))
system.loc_mem_ctrl.dram_2.peakBW            16000.00                       # Theoretical peak bandwidth in MiByte/s ((Byte/Second))
system.loc_mem_ctrl.dram_2.busUtil              71.20                       # Data bus utilization in percentage (Ratio)
system.loc_mem_ctrl.dram_2.busUtilRead          35.60                       # Data bus utilization in percentage for reads (Ratio)
system.loc_mem_ctrl.dram_2.busUtilWrite         35.60                       # Data bus utilization in percentage for writes (Ratio)
system.loc_mem_ctrl.dram_2.pageHitRate          49.94                       # Row buffer hit rate, read and write combined (Ratio)
system.loc_mem_ctrl.dram_2.power_state.pwrStateResidencyTicks::UNDEFINED  20000601000                       # Cumulative time (in ticks) in various power states (Tick)
system.loc_mem_ctrl.dram_2.rank0.actEnergy            0                       # Energy for activate commands per rank (pJ) (Joule)
system.loc_mem_ctrl.dram_2.rank0.preEnergy            0                       # Energy for precharge commands per rank (pJ) (Joule)
system.loc_mem_ctrl.dram_2.rank0.readEnergy            0                       # Energy for read commands per rank (pJ) (Joule)
system.loc_mem_ctrl.dram_2.rank0.writeEnergy            0                       # Energy for write commands per rank (pJ) (Joule)
system.loc_mem_ctrl.dram_2.rank0.refreshEnergy            0                       # Energy for refresh commands per rank (pJ) (Joule)
system.loc_mem_ctrl.dram_2.rank0.actBackEnergy            0                       # Energy for active background per rank (pJ) (Joule)
system.loc_mem_ctrl.dram_2.rank0.preBackEnergy            0                       # Energy for precharge background per rank (pJ) (Joule)
system.loc_mem_ctrl.dram_2.rank0.actPowerDownEnergy            0                       # Energy for active power-down per rank (pJ) (Joule)
system.loc_mem_ctrl.dram_2.rank0.prePowerDownEnergy            0                       # Energy for precharge power-down per rank (pJ) (Joule)
system.loc_mem_ctrl.dram_2.rank0.selfRefreshEnergy            0                       # Energy for self refresh per rank (pJ) (Joule)
system.loc_mem_ctrl.dram_2.rank0.totalEnergy            0                       # Total energy per rank (pJ) (Joule)
system.loc_mem_ctrl.dram_2.rank0.averagePower            0                       # Core power per rank (mW) (Watt)
system.loc_mem_ctrl.dram_2.rank0.totalIdleTime            0                       # Total Idle time Per DRAM Rank (Tick)
system.loc_mem_ctrl.dram_2.rank0.pwrStateTime::IDLE     97489088                       # Time in different power states (Tick)
system.loc_mem_ctrl.dram_2.rank0.pwrStateTime::REF   1132120000                       # Time in different power states (Tick)
system.loc_mem_ctrl.dram_2.rank0.pwrStateTime::SREF            0                       # Time in different power states (Tick)
system.loc_mem_ctrl.dram_2.rank0.pwrStateTime::PRE_PDN            0                       # Time in different power states (Tick)
system.loc_mem_ctrl.dram_2.rank0.pwrStateTime::ACT  18770991912                       # Time in different power states (Tick)
system.loc_mem_ctrl.dram_2.rank0.pwrStateTime::ACT_PDN            0                       # Time in different power states (Tick)
system.loc_mem_ctrl.power_state.pwrStateResidencyTicks::UNDEFINED  20000601000                       # Cumulative time (in ticks) in various power states (Tick)
system.mem_ctrl.bytesWritten::generator     228087552                       # Number of bytes written to this memory (Byte)
system.mem_ctrl.bytesWritten::total         228087552                       # Number of bytes written to this memory (Byte)
system.mem_ctrl.numWrites::generator          3563868                       # Number of write requests responded to by this memory (Count)
system.mem_ctrl.numWrites::total              3563868                       # Number of write requests responded to by this memory (Count)
system.mem_ctrl.bwWrite::generator        11404034909                       # Write bandwidth from this memory ((Byte/Second))
system.mem_ctrl.bwWrite::total            11404034909                       # Write bandwidth from this memory ((Byte/Second))
system.mem_ctrl.bwTotal::generator        11404034909                       # Total bandwidth to/from this memory ((Byte/Second))
system.mem_ctrl.bwTotal::total            11404034909                       # Total bandwidth to/from this memory ((Byte/Second))
system.mem_ctrl.readReqs                            0                       # Number of read requests accepted (Count)
system.mem_ctrl.writeReqs                     3563868                       # Number of write requests accepted (Count)
system.mem_ctrl.servicedByWrQ                       0                       # Number of controller read bursts serviced by the write queue (Count)
system.mem_ctrl.mergedWrBursts                     18                       # Number of controller write bursts merged with an existing one (Count)
system.mem_ctrl.numRdRetry                          0                       # Number of times read queue was full causing retry (Count)
system.mem_ctrl.numWrRetry                    3560034                       # Number of times write queue was full causing retry (Count)
system.mem_ctrl.readPktSize::0                      0                       # Read request sizes (log2) (Count)
system.mem_ctrl.readPktSize::1                      0                       # Read request sizes (log2) (Count)
system.mem_ctrl.readPktSize::2                      0                       # Read request sizes (log2) (Count)
system.mem_ctrl.readPktSize::3                      0                       # Read request sizes (log2) (Count)
system.mem_ctrl.readPktSize::4                      0                       # Read request sizes (log2) (Count)
system.mem_ctrl.readPktSize::5                      0                       # Read request sizes (log2) (Count)
system.mem_ctrl.readPktSize::6                      0                       # Read request sizes (log2) (Count)
system.mem_ctrl.writePktSize::0                     0                       # Write request sizes (log2) (Count)
system.mem_ctrl.writePktSize::1                     0                       # Write request sizes (log2) (Count)
system.mem_ctrl.writePktSize::2                     0                       # Write request sizes (log2) (Count)
system.mem_ctrl.writePktSize::3                     0                       # Write request sizes (log2) (Count)
system.mem_ctrl.writePktSize::4                     0                       # Write request sizes (log2) (Count)
system.mem_ctrl.writePktSize::5                     0                       # Write request sizes (log2) (Count)
system.mem_ctrl.writePktSize::6               3563868                       # Write request sizes (log2) (Count)
system.mem_ctrl.bytesReadWrQ                        0                       # Total number of bytes read from write queue (Byte)
system.mem_ctrl.bytesReadSys                        0                       # Total read bytes from the system interface side (Byte)
system.mem_ctrl.bytesWrittenSys             228087552                       # Total written bytes from the system interface side (Byte)
system.mem_ctrl.avgRdBWSys                 0.00000000                       # Average system read bandwidth in Byte/s ((Byte/Second))
system.mem_ctrl.avgWrBWSys               11404034908.75099182                       # Average system write bandwidth in Byte/s ((Byte/Second))
system.mem_ctrl.totGap                   10638364128244072448                       # Total gap between requests (Tick)
system.mem_ctrl.avgGap                   2985061211089.77                       # Average gap between requests ((Tick/Count))
system.mem_ctrl.avgORBLen                    255.9979                       # Average ORB length ((Count/Tick))
system.mem_ctrl.avgLocRdQLenStrt               146.94                       # Average local read queue length ((Count/Tick))
system.mem_ctrl.avgLocWrQLenStrt                57.45                       # Average local write queue length ((Count/Tick))
system.mem_ctrl.avgFarRdQLenStrt                 0.00                       # Average far read queue length ((Count/Tick))
system.mem_ctrl.avgFarWrQLenStrt                 0.00                       # Average far write queue length ((Count/Tick))
system.mem_ctrl.avgLocRdQLenEnq                147.94                       # Average local read queue length when enqueuing ((Count/Tick))
system.mem_ctrl.avgLocWrQLenEnq                133.89                       # Average local write queue length when enqueuing ((Count/Tick))
system.mem_ctrl.avgFarRdQLenEnq                  0.00                       # Average far read queue length when enqueuing ((Count/Tick))
system.mem_ctrl.avgFarWrQLenEnq                  0.00                       # Average far write queue length when enqueuing ((Count/Tick))
system.mem_ctrl.numWrBacks                          0                       # Total number of write backs from DRAM cache to main memory (Unspecified)
system.mem_ctrl.totNumConf                        905                       # Total number of packets conflicted on DRAM cache (Unspecified)
system.mem_ctrl.totNumORBFull                 3560034                       # Total number of packets ORB full (Unspecified)
system.mem_ctrl.totNumCRBFull                       0                       # Total number of packets conflicted yet couldn't enter confBuffer (Unspecified)
system.mem_ctrl.maxNumConf                          2                       # Maximum number of packets conflicted on DRAM cache (Unspecified)
system.mem_ctrl.sentLocRdPort                 3563868                       # stat (Unspecified)
system.mem_ctrl.sentLocWrPort                 3563614                       # stat (Unspecified)
system.mem_ctrl.failedLocRdPort               9433270                       # stat (Unspecified)
system.mem_ctrl.failedLocWrPort              10596756                       # stat (Unspecified)
system.mem_ctrl.recvdRdPort                         0                       # stat (Unspecified)
system.mem_ctrl.sentFarRdPort                       0                       # stat (Unspecified)
system.mem_ctrl.sentFarWrPort                       0                       # stat (Unspecified)
system.mem_ctrl.failedFarRdPort                     0                       # stat (Unspecified)
system.mem_ctrl.failedFarWrPort                     0                       # stat (Unspecified)
system.mem_ctrl.totPktsServiceTime         5120069837                       # stat (Unspecified)
system.mem_ctrl.totPktsORBTime             5119433575                       # stat (Unspecified)
system.mem_ctrl.totTimeFarRdtoSend                  0                       # stat (Unspecified)
system.mem_ctrl.totTimeFarRdtoRecv                  0                       # stat (Unspecified)
system.mem_ctrl.totTimeFarWrtoSend                  0                       # stat (Unspecified)
system.mem_ctrl.totTimeInLocRead           3166384553                       # stat (Unspecified)
system.mem_ctrl.totTimeInLocWrite          1952734004                       # stat (Unspecified)
system.mem_ctrl.totTimeInFarRead                    0                       # stat (Unspecified)
system.mem_ctrl.numTotHits                          0                       # stat (Unspecified)
system.mem_ctrl.numTotMisses                  3563868                       # stat (Unspecified)
system.mem_ctrl.numColdMisses                 1013505                       # stat (Unspecified)
system.mem_ctrl.numHotMisses                  2550363                       # stat (Unspecified)
system.mem_ctrl.numRdMissClean                      0                       # stat (Unspecified)
system.mem_ctrl.numRdMissDirty                      0                       # stat (Unspecified)
system.mem_ctrl.numRdHit                            0                       # stat (Unspecified)
system.mem_ctrl.numWrMissClean                1013505                       # stat (Unspecified)
system.mem_ctrl.numWrMissDirty                2550363                       # stat (Unspecified)
system.mem_ctrl.numWrHit                            0                       # stat (Unspecified)
system.mem_ctrl.numRdHitDirty                       0                       # stat (Unspecified)
system.mem_ctrl.numRdHitClean                       0                       # stat (Unspecified)
system.mem_ctrl.numWrHitDirty                       0                       # stat (Unspecified)
system.mem_ctrl.numWrHitClean                       0                       # stat (Unspecified)
system.mem_ctrl.power_state.pwrStateResidencyTicks::UNDEFINED  20000601000                       # Cumulative time (in ticks) in various power states (Tick)
system.workload.inst.arm                            0                       # number of arm instructions executed (Count)
system.workload.inst.quiesce                        0                       # number of quiesce instructions executed (Count)

---------- End Simulation Statistics   ----------
