
---------- Begin Simulation Statistics ----------
simSeconds                                   0.118380                       # Number of seconds simulated (Second)
simTicks                                 118380266501                       # Number of ticks simulated (Tick)
finalTick                                147934886735501                       # Number of ticks from beginning of simulation (restored from checkpoints and never reset) (Tick)
simFreq                                  1000000000000                       # The number of ticks per simulated second ((Tick/Second))
hostSeconds                                    494.05                       # Real time elapsed on the host (Second)
hostTickRate                                239614048                       # The number of ticks simulated per host second (ticks/s) ((Tick/Second))
hostMemory                                    7334460                       # Number of bytes of host memory used (Byte)
simInsts                                  38437981273                       # Number of instructions simulated (Count)
simOps                                    38509272115                       # Number of ops (including micro ops) simulated (Count)
hostInstRate                                 77802476                       # Simulator instruction rate (inst/s) ((Count/Second))
hostOpRate                                   77946774                       # Simulator op (including micro ops) rate (op/s) ((Count/Second))
system.work_item_type0::samples                     1                       # Run time stat forwork_item_type0 (Unspecified)
system.work_item_type0::mean             118380266501                       # Run time stat forwork_item_type0 (Unspecified)
system.work_item_type0::gmean            118380266500.999893                       # Run time stat forwork_item_type0 (Unspecified)
system.work_item_type0::stdev                     nan                       # Run time stat forwork_item_type0 (Unspecified)
system.work_item_type0::0-8.58993e+09               0      0.00%      0.00% # Run time stat forwork_item_type0 (Unspecified)
system.work_item_type0::8.58993e+09-1.71799e+10            0      0.00%      0.00% # Run time stat forwork_item_type0 (Unspecified)
system.work_item_type0::1.71799e+10-2.57698e+10            0      0.00%      0.00% # Run time stat forwork_item_type0 (Unspecified)
system.work_item_type0::2.57698e+10-3.43597e+10            0      0.00%      0.00% # Run time stat forwork_item_type0 (Unspecified)
system.work_item_type0::3.43597e+10-4.29497e+10            0      0.00%      0.00% # Run time stat forwork_item_type0 (Unspecified)
system.work_item_type0::4.29497e+10-5.15396e+10            0      0.00%      0.00% # Run time stat forwork_item_type0 (Unspecified)
system.work_item_type0::5.15396e+10-6.01295e+10            0      0.00%      0.00% # Run time stat forwork_item_type0 (Unspecified)
system.work_item_type0::6.01295e+10-6.87195e+10            0      0.00%      0.00% # Run time stat forwork_item_type0 (Unspecified)
system.work_item_type0::6.87195e+10-7.73094e+10            0      0.00%      0.00% # Run time stat forwork_item_type0 (Unspecified)
system.work_item_type0::7.73094e+10-8.58993e+10            0      0.00%      0.00% # Run time stat forwork_item_type0 (Unspecified)
system.work_item_type0::8.58993e+10-9.44893e+10            0      0.00%      0.00% # Run time stat forwork_item_type0 (Unspecified)
system.work_item_type0::9.44893e+10-1.03079e+11            0      0.00%      0.00% # Run time stat forwork_item_type0 (Unspecified)
system.work_item_type0::1.03079e+11-1.11669e+11            0      0.00%      0.00% # Run time stat forwork_item_type0 (Unspecified)
system.work_item_type0::1.11669e+11-1.20259e+11            1    100.00%    100.00% # Run time stat forwork_item_type0 (Unspecified)
system.work_item_type0::1.20259e+11-1.28849e+11            0      0.00%    100.00% # Run time stat forwork_item_type0 (Unspecified)
system.work_item_type0::1.28849e+11-1.37439e+11            0      0.00%    100.00% # Run time stat forwork_item_type0 (Unspecified)
system.work_item_type0::1.37439e+11-1.46029e+11            0      0.00%    100.00% # Run time stat forwork_item_type0 (Unspecified)
system.work_item_type0::1.46029e+11-1.54619e+11            0      0.00%    100.00% # Run time stat forwork_item_type0 (Unspecified)
system.work_item_type0::1.54619e+11-1.63209e+11            0      0.00%    100.00% # Run time stat forwork_item_type0 (Unspecified)
system.work_item_type0::1.63209e+11-1.71799e+11            0      0.00%    100.00% # Run time stat forwork_item_type0 (Unspecified)
system.work_item_type0::total                       1                       # Run time stat forwork_item_type0 (Unspecified)
system.atomicCpu0.numCycles                         0                       # Number of cpu cycles simulated (Cycle)
system.atomicCpu0.numWorkItemsStarted               0                       # Number of work items this cpu started (Count)
system.atomicCpu0.numWorkItemsCompleted             0                       # Number of work items this cpu completed (Count)
system.atomicCpu0.exec_context.thread_0.numInsts            0                       # Number of instructions committed (Count)
system.atomicCpu0.exec_context.thread_0.numOps            0                       # Number of ops (including micro ops) committed (Count)
system.atomicCpu0.exec_context.thread_0.numIntAluAccesses            0                       # Number of integer alu accesses (Count)
system.atomicCpu0.exec_context.thread_0.numFpAluAccesses            0                       # Number of float alu accesses (Count)
system.atomicCpu0.exec_context.thread_0.numVecAluAccesses            0                       # Number of vector alu accesses (Count)
system.atomicCpu0.exec_context.thread_0.numCallsReturns            0                       # Number of times a function call or return occured (Count)
system.atomicCpu0.exec_context.thread_0.numCondCtrlInsts            0                       # Number of instructions that are conditional controls (Count)
system.atomicCpu0.exec_context.thread_0.numIntInsts            0                       # Number of integer instructions (Count)
system.atomicCpu0.exec_context.thread_0.numFpInsts            0                       # Number of float instructions (Count)
system.atomicCpu0.exec_context.thread_0.numVecInsts            0                       # Number of vector instructions (Count)
system.atomicCpu0.exec_context.thread_0.numIntRegReads            0                       # Number of times the integer registers were read (Count)
system.atomicCpu0.exec_context.thread_0.numIntRegWrites            0                       # Number of times the integer registers were written (Count)
system.atomicCpu0.exec_context.thread_0.numFpRegReads            0                       # Number of times the floating registers were read (Count)
system.atomicCpu0.exec_context.thread_0.numFpRegWrites            0                       # Number of times the floating registers were written (Count)
system.atomicCpu0.exec_context.thread_0.numVecRegReads            0                       # Number of times the vector registers were read (Count)
system.atomicCpu0.exec_context.thread_0.numVecRegWrites            0                       # Number of times the vector registers were written (Count)
system.atomicCpu0.exec_context.thread_0.numVecPredRegReads            0                       # Number of times the predicate registers were read (Count)
system.atomicCpu0.exec_context.thread_0.numVecPredRegWrites            0                       # Number of times the predicate registers were written (Count)
system.atomicCpu0.exec_context.thread_0.numMiscRegReads            0                       # Number of times the Misc registers were read (Count)
system.atomicCpu0.exec_context.thread_0.numMiscRegWrites            0                       # Number of times the Misc registers were written (Count)
system.atomicCpu0.exec_context.thread_0.numMemRefs            0                       # Number of memory refs (Count)
system.atomicCpu0.exec_context.thread_0.numLoadInsts            0                       # Number of load instructions (Count)
system.atomicCpu0.exec_context.thread_0.numStoreInsts            0                       # Number of store instructions (Count)
system.atomicCpu0.exec_context.thread_0.numIdleCycles            0                       # Number of idle cycles (Cycle)
system.atomicCpu0.exec_context.thread_0.numBusyCycles            0                       # Number of busy cycles (Cycle)
system.atomicCpu0.exec_context.thread_0.notIdleFraction            0                       # Percentage of non-idle cycles (Ratio)
system.atomicCpu0.exec_context.thread_0.idleFraction            1                       # Percentage of idle cycles (Ratio)
system.atomicCpu0.exec_context.thread_0.statExecutedInstType::No_OpClass            0                       # Class of executed instruction. (Count)
system.atomicCpu0.exec_context.thread_0.statExecutedInstType::IntAlu            0                       # Class of executed instruction. (Count)
system.atomicCpu0.exec_context.thread_0.statExecutedInstType::IntMult            0                       # Class of executed instruction. (Count)
system.atomicCpu0.exec_context.thread_0.statExecutedInstType::IntDiv            0                       # Class of executed instruction. (Count)
system.atomicCpu0.exec_context.thread_0.statExecutedInstType::FloatAdd            0                       # Class of executed instruction. (Count)
system.atomicCpu0.exec_context.thread_0.statExecutedInstType::FloatCmp            0                       # Class of executed instruction. (Count)
system.atomicCpu0.exec_context.thread_0.statExecutedInstType::FloatCvt            0                       # Class of executed instruction. (Count)
system.atomicCpu0.exec_context.thread_0.statExecutedInstType::FloatMult            0                       # Class of executed instruction. (Count)
system.atomicCpu0.exec_context.thread_0.statExecutedInstType::FloatMultAcc            0                       # Class of executed instruction. (Count)
system.atomicCpu0.exec_context.thread_0.statExecutedInstType::FloatDiv            0                       # Class of executed instruction. (Count)
system.atomicCpu0.exec_context.thread_0.statExecutedInstType::FloatMisc            0                       # Class of executed instruction. (Count)
system.atomicCpu0.exec_context.thread_0.statExecutedInstType::FloatSqrt            0                       # Class of executed instruction. (Count)
system.atomicCpu0.exec_context.thread_0.statExecutedInstType::SimdAdd            0                       # Class of executed instruction. (Count)
system.atomicCpu0.exec_context.thread_0.statExecutedInstType::SimdAddAcc            0                       # Class of executed instruction. (Count)
system.atomicCpu0.exec_context.thread_0.statExecutedInstType::SimdAlu            0                       # Class of executed instruction. (Count)
system.atomicCpu0.exec_context.thread_0.statExecutedInstType::SimdCmp            0                       # Class of executed instruction. (Count)
system.atomicCpu0.exec_context.thread_0.statExecutedInstType::SimdCvt            0                       # Class of executed instruction. (Count)
system.atomicCpu0.exec_context.thread_0.statExecutedInstType::SimdMisc            0                       # Class of executed instruction. (Count)
system.atomicCpu0.exec_context.thread_0.statExecutedInstType::SimdMult            0                       # Class of executed instruction. (Count)
system.atomicCpu0.exec_context.thread_0.statExecutedInstType::SimdMultAcc            0                       # Class of executed instruction. (Count)
system.atomicCpu0.exec_context.thread_0.statExecutedInstType::SimdShift            0                       # Class of executed instruction. (Count)
system.atomicCpu0.exec_context.thread_0.statExecutedInstType::SimdShiftAcc            0                       # Class of executed instruction. (Count)
system.atomicCpu0.exec_context.thread_0.statExecutedInstType::SimdDiv            0                       # Class of executed instruction. (Count)
system.atomicCpu0.exec_context.thread_0.statExecutedInstType::SimdSqrt            0                       # Class of executed instruction. (Count)
system.atomicCpu0.exec_context.thread_0.statExecutedInstType::SimdFloatAdd            0                       # Class of executed instruction. (Count)
system.atomicCpu0.exec_context.thread_0.statExecutedInstType::SimdFloatAlu            0                       # Class of executed instruction. (Count)
system.atomicCpu0.exec_context.thread_0.statExecutedInstType::SimdFloatCmp            0                       # Class of executed instruction. (Count)
system.atomicCpu0.exec_context.thread_0.statExecutedInstType::SimdFloatCvt            0                       # Class of executed instruction. (Count)
system.atomicCpu0.exec_context.thread_0.statExecutedInstType::SimdFloatDiv            0                       # Class of executed instruction. (Count)
system.atomicCpu0.exec_context.thread_0.statExecutedInstType::SimdFloatMisc            0                       # Class of executed instruction. (Count)
system.atomicCpu0.exec_context.thread_0.statExecutedInstType::SimdFloatMult            0                       # Class of executed instruction. (Count)
system.atomicCpu0.exec_context.thread_0.statExecutedInstType::SimdFloatMultAcc            0                       # Class of executed instruction. (Count)
system.atomicCpu0.exec_context.thread_0.statExecutedInstType::SimdFloatSqrt            0                       # Class of executed instruction. (Count)
system.atomicCpu0.exec_context.thread_0.statExecutedInstType::SimdReduceAdd            0                       # Class of executed instruction. (Count)
system.atomicCpu0.exec_context.thread_0.statExecutedInstType::SimdReduceAlu            0                       # Class of executed instruction. (Count)
system.atomicCpu0.exec_context.thread_0.statExecutedInstType::SimdReduceCmp            0                       # Class of executed instruction. (Count)
system.atomicCpu0.exec_context.thread_0.statExecutedInstType::SimdFloatReduceAdd            0                       # Class of executed instruction. (Count)
system.atomicCpu0.exec_context.thread_0.statExecutedInstType::SimdFloatReduceCmp            0                       # Class of executed instruction. (Count)
system.atomicCpu0.exec_context.thread_0.statExecutedInstType::SimdAes            0                       # Class of executed instruction. (Count)
system.atomicCpu0.exec_context.thread_0.statExecutedInstType::SimdAesMix            0                       # Class of executed instruction. (Count)
system.atomicCpu0.exec_context.thread_0.statExecutedInstType::SimdSha1Hash            0                       # Class of executed instruction. (Count)
system.atomicCpu0.exec_context.thread_0.statExecutedInstType::SimdSha1Hash2            0                       # Class of executed instruction. (Count)
system.atomicCpu0.exec_context.thread_0.statExecutedInstType::SimdSha256Hash            0                       # Class of executed instruction. (Count)
system.atomicCpu0.exec_context.thread_0.statExecutedInstType::SimdSha256Hash2            0                       # Class of executed instruction. (Count)
system.atomicCpu0.exec_context.thread_0.statExecutedInstType::SimdShaSigma2            0                       # Class of executed instruction. (Count)
system.atomicCpu0.exec_context.thread_0.statExecutedInstType::SimdShaSigma3            0                       # Class of executed instruction. (Count)
system.atomicCpu0.exec_context.thread_0.statExecutedInstType::SimdPredAlu            0                       # Class of executed instruction. (Count)
system.atomicCpu0.exec_context.thread_0.statExecutedInstType::MemRead            0                       # Class of executed instruction. (Count)
system.atomicCpu0.exec_context.thread_0.statExecutedInstType::MemWrite            0                       # Class of executed instruction. (Count)
system.atomicCpu0.exec_context.thread_0.statExecutedInstType::FloatMemRead            0                       # Class of executed instruction. (Count)
system.atomicCpu0.exec_context.thread_0.statExecutedInstType::FloatMemWrite            0                       # Class of executed instruction. (Count)
system.atomicCpu0.exec_context.thread_0.statExecutedInstType::IprAccess            0                       # Class of executed instruction. (Count)
system.atomicCpu0.exec_context.thread_0.statExecutedInstType::InstPrefetch            0                       # Class of executed instruction. (Count)
system.atomicCpu0.exec_context.thread_0.statExecutedInstType::total            0                       # Class of executed instruction. (Count)
system.atomicCpu0.mmu.dtb.rdAccesses                0                       # TLB accesses on read requests (Count)
system.atomicCpu0.mmu.dtb.wrAccesses                0                       # TLB accesses on write requests (Count)
system.atomicCpu0.mmu.dtb.rdMisses                  0                       # TLB misses on read requests (Count)
system.atomicCpu0.mmu.dtb.wrMisses                  0                       # TLB misses on write requests (Count)
system.atomicCpu0.mmu.dtb.walker.power_state.pwrStateResidencyTicks::UNDEFINED 147934886735501                       # Cumulative time (in ticks) in various power states (Tick)
system.atomicCpu0.mmu.itb.rdAccesses                0                       # TLB accesses on read requests (Count)
system.atomicCpu0.mmu.itb.wrAccesses                0                       # TLB accesses on write requests (Count)
system.atomicCpu0.mmu.itb.rdMisses                  0                       # TLB misses on read requests (Count)
system.atomicCpu0.mmu.itb.wrMisses                  0                       # TLB misses on write requests (Count)
system.atomicCpu0.mmu.itb.walker.power_state.pwrStateResidencyTicks::UNDEFINED 147934886735501                       # Cumulative time (in ticks) in various power states (Tick)
system.atomicCpu0.power_state.pwrStateResidencyTicks::OFF 147934886735501                       # Cumulative time (in ticks) in various power states (Tick)
system.atomicCpu0.thread_0.numInsts                 0                       # Number of Instructions committed (Count)
system.atomicCpu0.thread_0.numOps                   0                       # Number of Ops committed (Count)
system.atomicCpu0.thread_0.numMemRefs               0                       # Number of Memory References (Count)
system.atomicCpu1.numCycles                         0                       # Number of cpu cycles simulated (Cycle)
system.atomicCpu1.numWorkItemsStarted               0                       # Number of work items this cpu started (Count)
system.atomicCpu1.numWorkItemsCompleted             0                       # Number of work items this cpu completed (Count)
system.atomicCpu1.exec_context.thread_0.numInsts            0                       # Number of instructions committed (Count)
system.atomicCpu1.exec_context.thread_0.numOps            0                       # Number of ops (including micro ops) committed (Count)
system.atomicCpu1.exec_context.thread_0.numIntAluAccesses            0                       # Number of integer alu accesses (Count)
system.atomicCpu1.exec_context.thread_0.numFpAluAccesses            0                       # Number of float alu accesses (Count)
system.atomicCpu1.exec_context.thread_0.numVecAluAccesses            0                       # Number of vector alu accesses (Count)
system.atomicCpu1.exec_context.thread_0.numCallsReturns            0                       # Number of times a function call or return occured (Count)
system.atomicCpu1.exec_context.thread_0.numCondCtrlInsts            0                       # Number of instructions that are conditional controls (Count)
system.atomicCpu1.exec_context.thread_0.numIntInsts            0                       # Number of integer instructions (Count)
system.atomicCpu1.exec_context.thread_0.numFpInsts            0                       # Number of float instructions (Count)
system.atomicCpu1.exec_context.thread_0.numVecInsts            0                       # Number of vector instructions (Count)
system.atomicCpu1.exec_context.thread_0.numIntRegReads            0                       # Number of times the integer registers were read (Count)
system.atomicCpu1.exec_context.thread_0.numIntRegWrites            0                       # Number of times the integer registers were written (Count)
system.atomicCpu1.exec_context.thread_0.numFpRegReads            0                       # Number of times the floating registers were read (Count)
system.atomicCpu1.exec_context.thread_0.numFpRegWrites            0                       # Number of times the floating registers were written (Count)
system.atomicCpu1.exec_context.thread_0.numVecRegReads            0                       # Number of times the vector registers were read (Count)
system.atomicCpu1.exec_context.thread_0.numVecRegWrites            0                       # Number of times the vector registers were written (Count)
system.atomicCpu1.exec_context.thread_0.numVecPredRegReads            0                       # Number of times the predicate registers were read (Count)
system.atomicCpu1.exec_context.thread_0.numVecPredRegWrites            0                       # Number of times the predicate registers were written (Count)
system.atomicCpu1.exec_context.thread_0.numMiscRegReads            0                       # Number of times the Misc registers were read (Count)
system.atomicCpu1.exec_context.thread_0.numMiscRegWrites            0                       # Number of times the Misc registers were written (Count)
system.atomicCpu1.exec_context.thread_0.numMemRefs            0                       # Number of memory refs (Count)
system.atomicCpu1.exec_context.thread_0.numLoadInsts            0                       # Number of load instructions (Count)
system.atomicCpu1.exec_context.thread_0.numStoreInsts            0                       # Number of store instructions (Count)
system.atomicCpu1.exec_context.thread_0.numIdleCycles            0                       # Number of idle cycles (Cycle)
system.atomicCpu1.exec_context.thread_0.numBusyCycles            0                       # Number of busy cycles (Cycle)
system.atomicCpu1.exec_context.thread_0.notIdleFraction            0                       # Percentage of non-idle cycles (Ratio)
system.atomicCpu1.exec_context.thread_0.idleFraction            1                       # Percentage of idle cycles (Ratio)
system.atomicCpu1.exec_context.thread_0.statExecutedInstType::No_OpClass            0                       # Class of executed instruction. (Count)
system.atomicCpu1.exec_context.thread_0.statExecutedInstType::IntAlu            0                       # Class of executed instruction. (Count)
system.atomicCpu1.exec_context.thread_0.statExecutedInstType::IntMult            0                       # Class of executed instruction. (Count)
system.atomicCpu1.exec_context.thread_0.statExecutedInstType::IntDiv            0                       # Class of executed instruction. (Count)
system.atomicCpu1.exec_context.thread_0.statExecutedInstType::FloatAdd            0                       # Class of executed instruction. (Count)
system.atomicCpu1.exec_context.thread_0.statExecutedInstType::FloatCmp            0                       # Class of executed instruction. (Count)
system.atomicCpu1.exec_context.thread_0.statExecutedInstType::FloatCvt            0                       # Class of executed instruction. (Count)
system.atomicCpu1.exec_context.thread_0.statExecutedInstType::FloatMult            0                       # Class of executed instruction. (Count)
system.atomicCpu1.exec_context.thread_0.statExecutedInstType::FloatMultAcc            0                       # Class of executed instruction. (Count)
system.atomicCpu1.exec_context.thread_0.statExecutedInstType::FloatDiv            0                       # Class of executed instruction. (Count)
system.atomicCpu1.exec_context.thread_0.statExecutedInstType::FloatMisc            0                       # Class of executed instruction. (Count)
system.atomicCpu1.exec_context.thread_0.statExecutedInstType::FloatSqrt            0                       # Class of executed instruction. (Count)
system.atomicCpu1.exec_context.thread_0.statExecutedInstType::SimdAdd            0                       # Class of executed instruction. (Count)
system.atomicCpu1.exec_context.thread_0.statExecutedInstType::SimdAddAcc            0                       # Class of executed instruction. (Count)
system.atomicCpu1.exec_context.thread_0.statExecutedInstType::SimdAlu            0                       # Class of executed instruction. (Count)
system.atomicCpu1.exec_context.thread_0.statExecutedInstType::SimdCmp            0                       # Class of executed instruction. (Count)
system.atomicCpu1.exec_context.thread_0.statExecutedInstType::SimdCvt            0                       # Class of executed instruction. (Count)
system.atomicCpu1.exec_context.thread_0.statExecutedInstType::SimdMisc            0                       # Class of executed instruction. (Count)
system.atomicCpu1.exec_context.thread_0.statExecutedInstType::SimdMult            0                       # Class of executed instruction. (Count)
system.atomicCpu1.exec_context.thread_0.statExecutedInstType::SimdMultAcc            0                       # Class of executed instruction. (Count)
system.atomicCpu1.exec_context.thread_0.statExecutedInstType::SimdShift            0                       # Class of executed instruction. (Count)
system.atomicCpu1.exec_context.thread_0.statExecutedInstType::SimdShiftAcc            0                       # Class of executed instruction. (Count)
system.atomicCpu1.exec_context.thread_0.statExecutedInstType::SimdDiv            0                       # Class of executed instruction. (Count)
system.atomicCpu1.exec_context.thread_0.statExecutedInstType::SimdSqrt            0                       # Class of executed instruction. (Count)
system.atomicCpu1.exec_context.thread_0.statExecutedInstType::SimdFloatAdd            0                       # Class of executed instruction. (Count)
system.atomicCpu1.exec_context.thread_0.statExecutedInstType::SimdFloatAlu            0                       # Class of executed instruction. (Count)
system.atomicCpu1.exec_context.thread_0.statExecutedInstType::SimdFloatCmp            0                       # Class of executed instruction. (Count)
system.atomicCpu1.exec_context.thread_0.statExecutedInstType::SimdFloatCvt            0                       # Class of executed instruction. (Count)
system.atomicCpu1.exec_context.thread_0.statExecutedInstType::SimdFloatDiv            0                       # Class of executed instruction. (Count)
system.atomicCpu1.exec_context.thread_0.statExecutedInstType::SimdFloatMisc            0                       # Class of executed instruction. (Count)
system.atomicCpu1.exec_context.thread_0.statExecutedInstType::SimdFloatMult            0                       # Class of executed instruction. (Count)
system.atomicCpu1.exec_context.thread_0.statExecutedInstType::SimdFloatMultAcc            0                       # Class of executed instruction. (Count)
system.atomicCpu1.exec_context.thread_0.statExecutedInstType::SimdFloatSqrt            0                       # Class of executed instruction. (Count)
system.atomicCpu1.exec_context.thread_0.statExecutedInstType::SimdReduceAdd            0                       # Class of executed instruction. (Count)
system.atomicCpu1.exec_context.thread_0.statExecutedInstType::SimdReduceAlu            0                       # Class of executed instruction. (Count)
system.atomicCpu1.exec_context.thread_0.statExecutedInstType::SimdReduceCmp            0                       # Class of executed instruction. (Count)
system.atomicCpu1.exec_context.thread_0.statExecutedInstType::SimdFloatReduceAdd            0                       # Class of executed instruction. (Count)
system.atomicCpu1.exec_context.thread_0.statExecutedInstType::SimdFloatReduceCmp            0                       # Class of executed instruction. (Count)
system.atomicCpu1.exec_context.thread_0.statExecutedInstType::SimdAes            0                       # Class of executed instruction. (Count)
system.atomicCpu1.exec_context.thread_0.statExecutedInstType::SimdAesMix            0                       # Class of executed instruction. (Count)
system.atomicCpu1.exec_context.thread_0.statExecutedInstType::SimdSha1Hash            0                       # Class of executed instruction. (Count)
system.atomicCpu1.exec_context.thread_0.statExecutedInstType::SimdSha1Hash2            0                       # Class of executed instruction. (Count)
system.atomicCpu1.exec_context.thread_0.statExecutedInstType::SimdSha256Hash            0                       # Class of executed instruction. (Count)
system.atomicCpu1.exec_context.thread_0.statExecutedInstType::SimdSha256Hash2            0                       # Class of executed instruction. (Count)
system.atomicCpu1.exec_context.thread_0.statExecutedInstType::SimdShaSigma2            0                       # Class of executed instruction. (Count)
system.atomicCpu1.exec_context.thread_0.statExecutedInstType::SimdShaSigma3            0                       # Class of executed instruction. (Count)
system.atomicCpu1.exec_context.thread_0.statExecutedInstType::SimdPredAlu            0                       # Class of executed instruction. (Count)
system.atomicCpu1.exec_context.thread_0.statExecutedInstType::MemRead            0                       # Class of executed instruction. (Count)
system.atomicCpu1.exec_context.thread_0.statExecutedInstType::MemWrite            0                       # Class of executed instruction. (Count)
system.atomicCpu1.exec_context.thread_0.statExecutedInstType::FloatMemRead            0                       # Class of executed instruction. (Count)
system.atomicCpu1.exec_context.thread_0.statExecutedInstType::FloatMemWrite            0                       # Class of executed instruction. (Count)
system.atomicCpu1.exec_context.thread_0.statExecutedInstType::IprAccess            0                       # Class of executed instruction. (Count)
system.atomicCpu1.exec_context.thread_0.statExecutedInstType::InstPrefetch            0                       # Class of executed instruction. (Count)
system.atomicCpu1.exec_context.thread_0.statExecutedInstType::total            0                       # Class of executed instruction. (Count)
system.atomicCpu1.mmu.dtb.rdAccesses                0                       # TLB accesses on read requests (Count)
system.atomicCpu1.mmu.dtb.wrAccesses                0                       # TLB accesses on write requests (Count)
system.atomicCpu1.mmu.dtb.rdMisses                  0                       # TLB misses on read requests (Count)
system.atomicCpu1.mmu.dtb.wrMisses                  0                       # TLB misses on write requests (Count)
system.atomicCpu1.mmu.dtb.walker.power_state.pwrStateResidencyTicks::UNDEFINED 147934886735501                       # Cumulative time (in ticks) in various power states (Tick)
system.atomicCpu1.mmu.itb.rdAccesses                0                       # TLB accesses on read requests (Count)
system.atomicCpu1.mmu.itb.wrAccesses                0                       # TLB accesses on write requests (Count)
system.atomicCpu1.mmu.itb.rdMisses                  0                       # TLB misses on read requests (Count)
system.atomicCpu1.mmu.itb.wrMisses                  0                       # TLB misses on write requests (Count)
system.atomicCpu1.mmu.itb.walker.power_state.pwrStateResidencyTicks::UNDEFINED 147934886735501                       # Cumulative time (in ticks) in various power states (Tick)
system.atomicCpu1.power_state.pwrStateResidencyTicks::OFF 147934886735501                       # Cumulative time (in ticks) in various power states (Tick)
system.atomicCpu1.thread_0.numInsts                 0                       # Number of Instructions committed (Count)
system.atomicCpu1.thread_0.numOps                   0                       # Number of Ops committed (Count)
system.atomicCpu1.thread_0.numMemRefs               0                       # Number of Memory References (Count)
system.caches.delayHistogram::bucket_size            8                       # delay histogram for all message (Unspecified)
system.caches.delayHistogram::max_bucket           79                       # delay histogram for all message (Unspecified)
system.caches.delayHistogram::samples        12701476                       # delay histogram for all message (Unspecified)
system.caches.delayHistogram::mean           0.174620                       # delay histogram for all message (Unspecified)
system.caches.delayHistogram::stdev          1.169997                       # delay histogram for all message (Unspecified)
system.caches.delayHistogram             |    12428031     97.85%     97.85% |      273013      2.15%    100.00% |         430      0.00%    100.00% |           0      0.00%    100.00% |           0      0.00%    100.00% |           0      0.00%    100.00% |           1      0.00%    100.00% |           0      0.00%    100.00% |           0      0.00%    100.00% |           1      0.00%    100.00% # delay histogram for all message (Unspecified)
system.caches.delayHistogram::total          12701476                       # delay histogram for all message (Unspecified)
system.caches.m_outstandReqHistSeqr::bucket_size            1                       (Unspecified)
system.caches.m_outstandReqHistSeqr::max_bucket            9                       (Unspecified)
system.caches.m_outstandReqHistSeqr::samples    195022759                       (Unspecified)
system.caches.m_outstandReqHistSeqr::mean     1.000000                       (Unspecified)
system.caches.m_outstandReqHistSeqr::gmean     1.000000                       (Unspecified)
system.caches.m_outstandReqHistSeqr::stdev     0.000175                       (Unspecified)
system.caches.m_outstandReqHistSeqr      |           0      0.00%      0.00% |   195022753    100.00%    100.00% |           6      0.00%    100.00% |           0      0.00%    100.00% |           0      0.00%    100.00% |           0      0.00%    100.00% |           0      0.00%    100.00% |           0      0.00%    100.00% |           0      0.00%    100.00% |           0      0.00%    100.00% (Unspecified)
system.caches.m_outstandReqHistSeqr::total    195022759                       (Unspecified)
system.caches.m_latencyHistSeqr::bucket_size          512                       (Unspecified)
system.caches.m_latencyHistSeqr::max_bucket         5119                       (Unspecified)
system.caches.m_latencyHistSeqr::samples    195022758                       (Unspecified)
system.caches.m_latencyHistSeqr::mean        3.852879                       (Unspecified)
system.caches.m_latencyHistSeqr::gmean       1.054674                       (Unspecified)
system.caches.m_latencyHistSeqr::stdev      38.754861                       (Unspecified)
system.caches.m_latencyHistSeqr          |   194777987     99.87%     99.87% |      216520      0.11%     99.99% |        9248      0.00%     99.99% |       17990      0.01%    100.00% |         989      0.00%    100.00% |          24      0.00%    100.00% |           0      0.00%    100.00% |           0      0.00%    100.00% |           0      0.00%    100.00% |           0      0.00%    100.00% (Unspecified)
system.caches.m_latencyHistSeqr::total      195022758                       (Unspecified)
system.caches.m_hitLatencyHistSeqr::bucket_size            1                       (Unspecified)
system.caches.m_hitLatencyHistSeqr::max_bucket            9                       (Unspecified)
system.caches.m_hitLatencyHistSeqr::samples    192718610                       (Unspecified)
system.caches.m_hitLatencyHistSeqr::mean            1                       (Unspecified)
system.caches.m_hitLatencyHistSeqr::gmean            1                       (Unspecified)
system.caches.m_hitLatencyHistSeqr       |           0      0.00%      0.00% |   192718610    100.00%    100.00% |           0      0.00%    100.00% |           0      0.00%    100.00% |           0      0.00%    100.00% |           0      0.00%    100.00% |           0      0.00%    100.00% |           0      0.00%    100.00% |           0      0.00%    100.00% |           0      0.00%    100.00% (Unspecified)
system.caches.m_hitLatencyHistSeqr::total    192718610                       (Unspecified)
system.caches.m_missLatencyHistSeqr::bucket_size          512                       (Unspecified)
system.caches.m_missLatencyHistSeqr::max_bucket         5119                       (Unspecified)
system.caches.m_missLatencyHistSeqr::samples      2304148                       (Unspecified)
system.caches.m_missLatencyHistSeqr::mean   242.467263                       (Unspecified)
system.caches.m_missLatencyHistSeqr::gmean    90.517468                       (Unspecified)
system.caches.m_missLatencyHistSeqr::stdev   263.640645                       (Unspecified)
system.caches.m_missLatencyHistSeqr      |     2059377     89.38%     89.38% |      216520      9.40%     98.77% |        9248      0.40%     99.18% |       17990      0.78%     99.96% |         989      0.04%    100.00% |          24      0.00%    100.00% |           0      0.00%    100.00% |           0      0.00%    100.00% |           0      0.00%    100.00% |           0      0.00%    100.00% (Unspecified)
system.caches.m_missLatencyHistSeqr::total      2304148                       (Unspecified)
system.caches.delayVCHist.vnet_0::bucket_size            8                       # delay histogram for vnet_0 (Unspecified)
system.caches.delayVCHist.vnet_0::max_bucket           79                       # delay histogram for vnet_0 (Unspecified)
system.caches.delayVCHist.vnet_0::samples      5898205                       # delay histogram for vnet_0 (Unspecified)
system.caches.delayVCHist.vnet_0::mean       0.375214                       # delay histogram for vnet_0 (Unspecified)
system.caches.delayVCHist.vnet_0::stdev      1.693576                       # delay histogram for vnet_0 (Unspecified)
system.caches.delayVCHist.vnet_0         |     5624901     95.37%     95.37% |      272873      4.63%     99.99% |         429      0.01%    100.00% |           0      0.00%    100.00% |           0      0.00%    100.00% |           0      0.00%    100.00% |           1      0.00%    100.00% |           0      0.00%    100.00% |           0      0.00%    100.00% |           1      0.00%    100.00% # delay histogram for vnet_0 (Unspecified)
system.caches.delayVCHist.vnet_0::total       5898205                       # delay histogram for vnet_0 (Unspecified)
system.caches.delayVCHist.vnet_1::bucket_size            2                       # delay histogram for vnet_1 (Unspecified)
system.caches.delayVCHist.vnet_1::max_bucket           19                       # delay histogram for vnet_1 (Unspecified)
system.caches.delayVCHist.vnet_1::samples      6648455                       # delay histogram for vnet_1 (Unspecified)
system.caches.delayVCHist.vnet_1::mean       0.000725                       # delay histogram for vnet_1 (Unspecified)
system.caches.delayVCHist.vnet_1::stdev      0.063268                       # delay histogram for vnet_1 (Unspecified)
system.caches.delayVCHist.vnet_1         |     6647405     99.98%     99.98% |         297      0.00%     99.99% |         291      0.00%     99.99% |         321      0.00%    100.00% |         140      0.00%    100.00% |           0      0.00%    100.00% |           0      0.00%    100.00% |           0      0.00%    100.00% |           1      0.00%    100.00% |           0      0.00%    100.00% # delay histogram for vnet_1 (Unspecified)
system.caches.delayVCHist.vnet_1::total       6648455                       # delay histogram for vnet_1 (Unspecified)
system.caches.delayVCHist.vnet_2::bucket_size            1                       # delay histogram for vnet_2 (Unspecified)
system.caches.delayVCHist.vnet_2::max_bucket            9                       # delay histogram for vnet_2 (Unspecified)
system.caches.delayVCHist.vnet_2::samples       154816                       # delay histogram for vnet_2 (Unspecified)
system.caches.delayVCHist.vnet_2::mean       0.000155                       # delay histogram for vnet_2 (Unspecified)
system.caches.delayVCHist.vnet_2::stdev      0.017607                       # delay histogram for vnet_2 (Unspecified)
system.caches.delayVCHist.vnet_2         |      154804     99.99%     99.99% |           0      0.00%     99.99% |          12      0.01%    100.00% |           0      0.00%    100.00% |           0      0.00%    100.00% |           0      0.00%    100.00% |           0      0.00%    100.00% |           0      0.00%    100.00% |           0      0.00%    100.00% |           0      0.00%    100.00% # delay histogram for vnet_2 (Unspecified)
system.caches.delayVCHist.vnet_2::total        154816                       # delay histogram for vnet_2 (Unspecified)
system.caches.L1Cache_Controller.Load    |    17646686     50.08%     50.08% |    17589841     49.92%    100.00% (Unspecified)
system.caches.L1Cache_Controller.Load::total     35236527                       (Unspecified)
system.caches.L1Cache_Controller.Ifetch  |    79176697     50.38%     50.38% |    77973542     49.62%    100.00% (Unspecified)
system.caches.L1Cache_Controller.Ifetch::total    157150239                       (Unspecified)
system.caches.L1Cache_Controller.Store   |     1249074     47.39%     47.39% |     1386918     52.61%    100.00% (Unspecified)
system.caches.L1Cache_Controller.Store::total      2635992                       (Unspecified)
system.caches.L1Cache_Controller.Inv     |       43268     48.30%     48.30% |       46307     51.70%    100.00% (Unspecified)
system.caches.L1Cache_Controller.Inv::total        89575                       (Unspecified)
system.caches.L1Cache_Controller.L1_Replacement |     1111202     49.82%     49.82% |     1119094     50.18%    100.00% (Unspecified)
system.caches.L1Cache_Controller.L1_Replacement::total      2230296                       (Unspecified)
system.caches.L1Cache_Controller.Fwd_GETX |         201     49.14%     49.14% |         208     50.86%    100.00% (Unspecified)
system.caches.L1Cache_Controller.Fwd_GETX::total          409                       (Unspecified)
system.caches.L1Cache_Controller.Fwd_GETS |       33151     51.13%     51.13% |       31681     48.87%    100.00% (Unspecified)
system.caches.L1Cache_Controller.Fwd_GETS::total        64832                       (Unspecified)
system.caches.L1Cache_Controller.Data    |         150     98.04%     98.04% |           3      1.96%    100.00% (Unspecified)
system.caches.L1Cache_Controller.Data::total          153                       (Unspecified)
system.caches.L1Cache_Controller.Data_Exclusive |      873833     49.84%     49.84% |      879321     50.16%    100.00% (Unspecified)
system.caches.L1Cache_Controller.Data_Exclusive::total      1753154                       (Unspecified)
system.caches.L1Cache_Controller.DataS_fromL1 |       31681     48.87%     48.87% |       33151     51.13%    100.00% (Unspecified)
system.caches.L1Cache_Controller.DataS_fromL1::total        64832                       (Unspecified)
system.caches.L1Cache_Controller.Data_all_Acks |      219389     49.68%     49.68% |      222240     50.32%    100.00% (Unspecified)
system.caches.L1Cache_Controller.Data_all_Acks::total       441629                       (Unspecified)
system.caches.L1Cache_Controller.Ack     |       23386     52.69%     52.69% |       20994     47.31%    100.00% (Unspecified)
system.caches.L1Cache_Controller.Ack::total        44380                       (Unspecified)
system.caches.L1Cache_Controller.Ack_all |       23536     52.85%     52.85% |       20997     47.15%    100.00% (Unspecified)
system.caches.L1Cache_Controller.Ack_all::total        44533                       (Unspecified)
system.caches.L1Cache_Controller.WB_Ack  |      859004     49.84%     49.84% |      864566     50.16%    100.00% (Unspecified)
system.caches.L1Cache_Controller.WB_Ack::total      1723570                       (Unspecified)
system.caches.L1Cache_Controller.NP.Load |     1112004     49.86%     49.86% |     1118308     50.14%    100.00% (Unspecified)
system.caches.L1Cache_Controller.NP.Load::total      2230312                       (Unspecified)
system.caches.L1Cache_Controller.NP.Ifetch |        4391     46.39%     46.39% |        5075     53.61%    100.00% (Unspecified)
system.caches.L1Cache_Controller.NP.Ifetch::total         9466                       (Unspecified)
system.caches.L1Cache_Controller.NP.Store |        3361     43.23%     43.23% |        4414     56.77%    100.00% (Unspecified)
system.caches.L1Cache_Controller.NP.Store::total         7775                       (Unspecified)
system.caches.L1Cache_Controller.NP.Inv  |       32200     49.76%     49.76% |       32514     50.24%    100.00% (Unspecified)
system.caches.L1Cache_Controller.NP.Inv::total        64714                       (Unspecified)
system.caches.L1Cache_Controller.I.Load  |        3404     39.78%     39.78% |        5152     60.22%    100.00% (Unspecified)
system.caches.L1Cache_Controller.I.Load::total         8556                       (Unspecified)
system.caches.L1Cache_Controller.I.Ifetch |        1712     51.68%     51.68% |        1601     48.32%    100.00% (Unspecified)
system.caches.L1Cache_Controller.I.Ifetch::total         3313                       (Unspecified)
system.caches.L1Cache_Controller.I.Store |         180     52.33%     52.33% |         164     47.67%    100.00% (Unspecified)
system.caches.L1Cache_Controller.I.Store::total          344                       (Unspecified)
system.caches.L1Cache_Controller.I.L1_Replacement |        5917     45.58%     45.58% |        7065     54.42%    100.00% (Unspecified)
system.caches.L1Cache_Controller.I.L1_Replacement::total        12982                       (Unspecified)
system.caches.L1Cache_Controller.S.Load  |     9519247     50.80%     50.80% |     9217750     49.20%    100.00% (Unspecified)
system.caches.L1Cache_Controller.S.Load::total     18736997                       (Unspecified)
system.caches.L1Cache_Controller.S.Ifetch |    79170594     50.38%     50.38% |    77966866     49.62%    100.00% (Unspecified)
system.caches.L1Cache_Controller.S.Ifetch::total    157137460                       (Unspecified)
system.caches.L1Cache_Controller.S.Store |       23387     52.69%     52.69% |       20995     47.31%    100.00% (Unspecified)
system.caches.L1Cache_Controller.S.Store::total        44382                       (Unspecified)
system.caches.L1Cache_Controller.S.Inv   |       10694     44.38%     44.38% |       13403     55.62%    100.00% (Unspecified)
system.caches.L1Cache_Controller.S.Inv::total        24097                       (Unspecified)
system.caches.L1Cache_Controller.S.L1_Replacement |      246281     49.88%     49.88% |      247463     50.12%    100.00% (Unspecified)
system.caches.L1Cache_Controller.S.L1_Replacement::total       493744                       (Unspecified)
system.caches.L1Cache_Controller.E.Load  |     4127612     49.55%     49.55% |     4202900     50.45%    100.00% (Unspecified)
system.caches.L1Cache_Controller.E.Load::total      8330512                       (Unspecified)
system.caches.L1Cache_Controller.E.Store |      123601     49.46%     49.46% |      126310     50.54%    100.00% (Unspecified)
system.caches.L1Cache_Controller.E.Store::total       249911                       (Unspecified)
system.caches.L1Cache_Controller.E.Inv   |         272     47.72%     47.72% |         298     52.28%    100.00% (Unspecified)
system.caches.L1Cache_Controller.E.Inv::total          570                       (Unspecified)
system.caches.L1Cache_Controller.E.L1_Replacement |      723243     49.82%     49.82% |      728338     50.18%    100.00% (Unspecified)
system.caches.L1Cache_Controller.E.L1_Replacement::total      1451581                       (Unspecified)
system.caches.L1Cache_Controller.E.Fwd_GETX |           4      7.69%      7.69% |          48     92.31%    100.00% (Unspecified)
system.caches.L1Cache_Controller.E.Fwd_GETX::total           52                       (Unspecified)
system.caches.L1Cache_Controller.E.Fwd_GETS |       18751     49.09%     49.09% |       19444     50.91%    100.00% (Unspecified)
system.caches.L1Cache_Controller.E.Fwd_GETS::total        38195                       (Unspecified)
system.caches.L1Cache_Controller.M.Load  |     2884419     48.64%     48.64% |     3045731     51.36%    100.00% (Unspecified)
system.caches.L1Cache_Controller.M.Load::total      5930150                       (Unspecified)
system.caches.L1Cache_Controller.M.Store |     1098545     47.08%     47.08% |     1235035     52.92%    100.00% (Unspecified)
system.caches.L1Cache_Controller.M.Store::total      2333580                       (Unspecified)
system.caches.L1Cache_Controller.M.Inv   |         101     52.60%     52.60% |          91     47.40%    100.00% (Unspecified)
system.caches.L1Cache_Controller.M.Inv::total          192                       (Unspecified)
system.caches.L1Cache_Controller.M.L1_Replacement |      135761     49.91%     49.91% |      136228     50.09%    100.00% (Unspecified)
system.caches.L1Cache_Controller.M.L1_Replacement::total       271989                       (Unspecified)
system.caches.L1Cache_Controller.M.Fwd_GETX |         197     55.18%     55.18% |         160     44.82%    100.00% (Unspecified)
system.caches.L1Cache_Controller.M.Fwd_GETX::total          357                       (Unspecified)
system.caches.L1Cache_Controller.M.Fwd_GETS |       14400     54.06%     54.06% |       12237     45.94%    100.00% (Unspecified)
system.caches.L1Cache_Controller.M.Fwd_GETS::total        26637                       (Unspecified)
system.caches.L1Cache_Controller.IS.Data_Exclusive |      873833     49.84%     49.84% |      879321     50.16%    100.00% (Unspecified)
system.caches.L1Cache_Controller.IS.Data_Exclusive::total      1753154                       (Unspecified)
system.caches.L1Cache_Controller.IS.DataS_fromL1 |       31681     48.87%     48.87% |       33151     51.13%    100.00% (Unspecified)
system.caches.L1Cache_Controller.IS.DataS_fromL1::total        64832                       (Unspecified)
system.caches.L1Cache_Controller.IS.Data_all_Acks |      215997     49.81%     49.81% |      217664     50.19%    100.00% (Unspecified)
system.caches.L1Cache_Controller.IS.Data_all_Acks::total       433661                       (Unspecified)
system.caches.L1Cache_Controller.IM.Data |         150     98.04%     98.04% |           3      1.96%    100.00% (Unspecified)
system.caches.L1Cache_Controller.IM.Data::total          153                       (Unspecified)
system.caches.L1Cache_Controller.IM.Data_all_Acks |        3392     42.57%     42.57% |        4576     57.43%    100.00% (Unspecified)
system.caches.L1Cache_Controller.IM.Data_all_Acks::total         7968                       (Unspecified)
system.caches.L1Cache_Controller.SM.Inv  |           1     50.00%     50.00% |           1     50.00%    100.00% (Unspecified)
system.caches.L1Cache_Controller.SM.Inv::total            2                       (Unspecified)
system.caches.L1Cache_Controller.SM.Ack  |       23386     52.69%     52.69% |       20994     47.31%    100.00% (Unspecified)
system.caches.L1Cache_Controller.SM.Ack::total        44380                       (Unspecified)
system.caches.L1Cache_Controller.SM.Ack_all |       23536     52.85%     52.85% |       20997     47.15%    100.00% (Unspecified)
system.caches.L1Cache_Controller.SM.Ack_all::total        44533                       (Unspecified)
system.caches.L1Cache_Controller.M_I.WB_Ack |      859004     49.84%     49.84% |      864566     50.16%    100.00% (Unspecified)
system.caches.L1Cache_Controller.M_I.WB_Ack::total      1723570                       (Unspecified)
system.caches.Directory_Controller.Fetch      1298701      0.00%      0.00% (Unspecified)
system.caches.Directory_Controller.Data        174301      0.00%      0.00% (Unspecified)
system.caches.Directory_Controller.Memory_Data      1298701      0.00%      0.00% (Unspecified)
system.caches.Directory_Controller.Memory_Ack       174301      0.00%      0.00% (Unspecified)
system.caches.Directory_Controller.CleanReplacement       993328      0.00%      0.00% (Unspecified)
system.caches.Directory_Controller.I.Fetch      1298701      0.00%      0.00% (Unspecified)
system.caches.Directory_Controller.M.Data       174301      0.00%      0.00% (Unspecified)
system.caches.Directory_Controller.M.CleanReplacement       993328      0.00%      0.00% (Unspecified)
system.caches.Directory_Controller.IM.Memory_Data      1298701      0.00%      0.00% (Unspecified)
system.caches.Directory_Controller.MI.Memory_Ack       174301      0.00%      0.00% (Unspecified)
system.caches.L2Cache_Controller.L1_GET_INSTR |         975      7.63%      7.63% |        1784     13.95%     21.58% |        1589     12.43%     34.01% |         842      6.59%     40.60% |        1270      9.93%     50.53% |        1934     15.13%     65.66% |        2254     17.63%     83.29% |        2136     16.71%    100.00% (Unspecified)
system.caches.L2Cache_Controller.L1_GET_INSTR::total        12784                       (Unspecified)
system.caches.L2Cache_Controller.L1_GETS |      282889     12.63%     12.63% |      282678     12.62%     25.26% |      279860     12.50%     37.76% |      279525     12.48%     50.24% |      276856     12.36%     62.60% |      280519     12.53%     75.13% |      280128     12.51%     87.64% |      276744     12.36%    100.00% (Unspecified)
system.caches.L2Cache_Controller.L1_GETS::total      2239199                       (Unspecified)
system.caches.L2Cache_Controller.L1_GETX |        1310     16.13%     16.13% |        1233     15.18%     31.31% |         514      6.33%     37.63% |         770      9.48%     47.11% |         755      9.29%     56.41% |        1386     17.06%     73.47% |         962     11.84%     85.31% |        1193     14.69%    100.00% (Unspecified)
system.caches.L2Cache_Controller.L1_GETX::total         8123                       (Unspecified)
system.caches.L2Cache_Controller.L1_UPGRADE |        5577     12.49%     12.49% |        5663     12.68%     25.17% |        5564     12.46%     37.63% |        5431     12.16%     49.79% |        5330     11.94%     61.73% |        5552     12.43%     74.16% |        6201     13.89%     88.05% |        5336     11.95%    100.00% (Unspecified)
system.caches.L2Cache_Controller.L1_UPGRADE::total        44654                       (Unspecified)
system.caches.L2Cache_Controller.L1_PUTX |      216493     12.56%     12.56% |      216152     12.54%     25.10% |      214741     12.46%     37.56% |      213877     12.41%     49.97% |      214998     12.47%     62.44% |      216012     12.53%     74.98% |      216060     12.54%     87.51% |      215237     12.49%    100.00% (Unspecified)
system.caches.L2Cache_Controller.L1_PUTX::total      1723570                       (Unspecified)
system.caches.L2Cache_Controller.L2_Replacement |       21825     12.53%     12.53% |       21603     12.40%     24.93% |       21672     12.44%     37.36% |       21657     12.43%     49.79% |       21859     12.55%     62.34% |       21846     12.54%     74.88% |       21862     12.55%     87.42% |       21910     12.58%    100.00% (Unspecified)
system.caches.L2Cache_Controller.L2_Replacement::total       174234                       (Unspecified)
system.caches.L2Cache_Controller.L2_Replacement_clean |      124484     12.53%     12.53% |      124292     12.51%     25.04% |      123604     12.44%     37.49% |      123701     12.45%     49.94% |      124322     12.51%     62.45% |      124224     12.50%     74.96% |      124528     12.54%     87.49% |      124240     12.51%    100.00% (Unspecified)
system.caches.L2Cache_Controller.L2_Replacement_clean::total       993395                       (Unspecified)
system.caches.L2Cache_Controller.Mem_Data |      162693     12.53%     12.53% |      162279     12.50%     25.02% |      161660     12.45%     37.47% |      161742     12.45%     49.92% |      162565     12.52%     62.44% |      162454     12.51%     74.95% |      162774     12.53%     87.48% |      162534     12.52%    100.00% (Unspecified)
system.caches.L2Cache_Controller.Mem_Data::total      1298701                       (Unspecified)
system.caches.L2Cache_Controller.Mem_Ack |      146309     12.53%     12.53% |      145895     12.49%     25.03% |      145276     12.44%     37.47% |      145358     12.45%     49.92% |      146181     12.52%     62.44% |      146070     12.51%     74.95% |      146390     12.54%     87.48% |      146150     12.52%    100.00% (Unspecified)
system.caches.L2Cache_Controller.Mem_Ack::total      1167629                       (Unspecified)
system.caches.L2Cache_Controller.WB_Data |        3434     12.80%     12.80% |        3361     12.53%     25.33% |        3147     11.73%     37.06% |        3242     12.08%     49.14% |        3240     12.08%     61.22% |        3336     12.43%     73.65% |        3822     14.25%     87.90% |        3247     12.10%    100.00% (Unspecified)
system.caches.L2Cache_Controller.WB_Data::total        26829                       (Unspecified)
system.caches.L2Cache_Controller.WB_Data_clean |        4730     12.38%     12.38% |        4841     12.67%     25.06% |        4965     13.00%     38.06% |        4650     12.17%     50.23% |        4713     12.34%     62.57% |        4891     12.81%     75.38% |        4769     12.49%     87.86% |        4636     12.14%    100.00% (Unspecified)
system.caches.L2Cache_Controller.WB_Data_clean::total        38195                       (Unspecified)
system.caches.L2Cache_Controller.Ack     |        2664     12.37%     12.37% |        2691     12.49%     24.86% |        2685     12.47%     37.33% |        2570     11.93%     49.26% |        2805     13.02%     62.28% |        2790     12.95%     75.23% |        2671     12.40%     87.63% |        2664     12.37%    100.00% (Unspecified)
system.caches.L2Cache_Controller.Ack::total        21540                       (Unspecified)
system.caches.L2Cache_Controller.Ack_all |        2929     12.57%     12.57% |        2944     12.63%     25.20% |        2901     12.45%     37.64% |        2781     11.93%     49.57% |        3003     12.88%     62.45% |        3006     12.90%     75.35% |        2864     12.29%     87.64% |        2882     12.36%    100.00% (Unspecified)
system.caches.L2Cache_Controller.Ack_all::total        23310                       (Unspecified)
system.caches.L2Cache_Controller.Unblock |        8130     12.54%     12.54% |        8182     12.62%     25.16% |        8103     12.50%     37.66% |        7870     12.14%     49.80% |        7940     12.25%     62.04% |        8190     12.63%     74.68% |        8563     13.21%     87.89% |        7854     12.11%    100.00% (Unspecified)
system.caches.L2Cache_Controller.Unblock::total        64832                       (Unspecified)
system.caches.L2Cache_Controller.Exclusive_Unblock |      226776     12.56%     12.56% |      226778     12.56%     25.12% |      224921     12.46%     37.58% |      223854     12.40%     49.97% |      225040     12.46%     62.44% |      226345     12.54%     74.97% |      226741     12.56%     87.53% |      225200     12.47%    100.00% (Unspecified)
system.caches.L2Cache_Controller.Exclusive_Unblock::total      1805655                       (Unspecified)
system.caches.L2Cache_Controller.NP.L1_GET_INSTR |         534     13.23%     13.23% |         563     13.95%     27.17% |         502     12.43%     39.61% |         483     11.96%     51.57% |         502     12.43%     64.01% |         495     12.26%     76.27% |         453     11.22%     87.49% |         505     12.51%    100.00% (Unspecified)
system.caches.L2Cache_Controller.NP.L1_GET_INSTR::total         4037                       (Unspecified)
system.caches.L2Cache_Controller.NP.L1_GETS |      161871     12.53%     12.53% |      161427     12.49%     25.02% |      160884     12.45%     37.46% |      160976     12.46%     49.92% |      161786     12.52%     62.44% |      161658     12.51%     74.95% |      162032     12.54%     87.49% |      161730     12.51%    100.00% (Unspecified)
system.caches.L2Cache_Controller.NP.L1_GETS::total      1292364                       (Unspecified)
system.caches.L2Cache_Controller.NP.L1_GETX |         288     12.52%     12.52% |         289     12.57%     25.09% |         274     11.91%     37.00% |         283     12.30%     49.30% |         277     12.04%     61.35% |         301     13.09%     74.43% |         289     12.57%     87.00% |         299     13.00%    100.00% (Unspecified)
system.caches.L2Cache_Controller.NP.L1_GETX::total         2300                       (Unspecified)
system.caches.L2Cache_Controller.SS.L1_GET_INSTR |         346      4.28%      4.28% |        1122     13.86%     18.14% |        1002     12.38%     30.52% |         281      3.47%     33.99% |         681      8.41%     42.41% |        1367     16.89%     59.30% |        1737     21.46%     80.76% |        1557     19.24%    100.00% (Unspecified)
system.caches.L2Cache_Controller.SS.L1_GET_INSTR::total         8093                       (Unspecified)
system.caches.L2Cache_Controller.SS.L1_GETS |       54809     13.03%     13.03% |       54606     12.98%     26.00% |       52905     12.57%     38.58% |       53996     12.83%     51.41% |       49948     11.87%     63.28% |       52909     12.57%     75.86% |       51381     12.21%     88.07% |       50210     11.93%    100.00% (Unspecified)
system.caches.L2Cache_Controller.SS.L1_GETS::total       420764                       (Unspecified)
system.caches.L2Cache_Controller.SS.L1_GETX |          52     33.99%     33.99% |           0      0.00%     33.99% |           0      0.00%     33.99% |           1      0.65%     34.64% |           2      1.31%     35.95% |           0      0.00%     35.95% |          98     64.05%    100.00% |           0      0.00%    100.00% (Unspecified)
system.caches.L2Cache_Controller.SS.L1_GETX::total          153                       (Unspecified)
system.caches.L2Cache_Controller.SS.L1_UPGRADE |        5576     12.56%     12.56% |        5663     12.76%     25.32% |        5564     12.54%     37.86% |        5431     12.24%     50.10% |        5330     12.01%     62.11% |        5552     12.51%     74.62% |        5929     13.36%     87.98% |        5335     12.02%    100.00% (Unspecified)
system.caches.L2Cache_Controller.SS.L1_UPGRADE::total        44380                       (Unspecified)
system.caches.L2Cache_Controller.SS.L2_Replacement |        1929     12.27%     12.27% |        1969     12.52%     24.79% |        1984     12.62%     37.41% |        1915     12.18%     49.59% |        2057     13.08%     62.67% |        1960     12.47%     75.13% |        1952     12.41%     87.55% |        1958     12.45%    100.00% (Unspecified)
system.caches.L2Cache_Controller.SS.L2_Replacement::total        15724                       (Unspecified)
system.caches.L2Cache_Controller.SS.L2_Replacement_clean |         910     12.97%     12.97% |         898     12.80%     25.77% |         861     12.27%     38.04% |         805     11.47%     49.52% |         875     12.47%     61.99% |         964     13.74%     75.73% |         845     12.04%     87.77% |         858     12.23%    100.00% (Unspecified)
system.caches.L2Cache_Controller.SS.L2_Replacement_clean::total         7016                       (Unspecified)
system.caches.L2Cache_Controller.M.L1_GETS |       58048     12.60%     12.60% |       58459     12.69%     25.28% |       57963     12.58%     37.86% |       56680     12.30%     50.16% |       57174     12.41%     62.56% |       57755     12.53%     75.10% |       57824     12.55%     87.64% |       56946     12.36%    100.00% (Unspecified)
system.caches.L2Cache_Controller.M.L1_GETS::total       460849                       (Unspecified)
system.caches.L2Cache_Controller.M.L1_GETX |         922     17.53%     17.53% |         606     11.52%     29.05% |         240      4.56%     33.62% |         477      9.07%     42.69% |         476      9.05%     51.74% |        1078     20.50%     72.24% |         573     10.90%     83.13% |         887     16.87%    100.00% (Unspecified)
system.caches.L2Cache_Controller.M.L1_GETX::total         5259                       (Unspecified)
system.caches.L2Cache_Controller.M.L2_Replacement |       19874     12.55%     12.55% |       19616     12.39%     24.94% |       19682     12.43%     37.37% |       19723     12.45%     49.82% |       19790     12.50%     62.32% |       19860     12.54%     74.86% |       19884     12.56%     87.42% |       19927     12.58%    100.00% (Unspecified)
system.caches.L2Cache_Controller.M.L2_Replacement::total       158356                       (Unspecified)
system.caches.L2Cache_Controller.M.L2_Replacement_clean |      123472     12.53%     12.53% |      123315     12.51%     25.03% |      122684     12.45%     37.48% |      122832     12.46%     49.94% |      123375     12.52%     62.46% |      123167     12.49%     74.95% |      123614     12.54%     87.49% |      123312     12.51%    100.00% (Unspecified)
system.caches.L2Cache_Controller.M.L2_Replacement_clean::total       985771                       (Unspecified)
system.caches.L2Cache_Controller.MT.L1_GETS |        8130     12.54%     12.54% |        8182     12.62%     25.16% |        8103     12.50%     37.66% |        7870     12.14%     49.80% |        7940     12.25%     62.04% |        8190     12.63%     74.68% |        8563     13.21%     87.89% |        7854     12.11%    100.00% (Unspecified)
system.caches.L2Cache_Controller.MT.L1_GETS::total        64832                       (Unspecified)
system.caches.L2Cache_Controller.MT.L1_GETX |          48     11.74%     11.74% |         338     82.64%     94.38% |           0      0.00%     94.38% |           9      2.20%     96.58% |           0      0.00%     96.58% |           7      1.71%     98.29% |           1      0.24%     98.53% |           6      1.47%    100.00% (Unspecified)
system.caches.L2Cache_Controller.MT.L1_GETX::total          409                       (Unspecified)
system.caches.L2Cache_Controller.MT.L1_PUTX |      216493     12.56%     12.56% |      216152     12.54%     25.10% |      214741     12.46%     37.56% |      213877     12.41%     49.97% |      214998     12.47%     62.44% |      216012     12.53%     74.98% |      216060     12.54%     87.51% |      215237     12.49%    100.00% (Unspecified)
system.caches.L2Cache_Controller.MT.L1_PUTX::total      1723570                       (Unspecified)
system.caches.L2Cache_Controller.MT.L2_Replacement |          22     14.29%     14.29% |          18     11.69%     25.97% |           6      3.90%     29.87% |          19     12.34%     42.21% |          12      7.79%     50.00% |          26     16.88%     66.88% |          26     16.88%     83.77% |          25     16.23%    100.00% (Unspecified)
system.caches.L2Cache_Controller.MT.L2_Replacement::total          154                       (Unspecified)
system.caches.L2Cache_Controller.MT.L2_Replacement_clean |         102     16.78%     16.78% |          79     12.99%     29.77% |          59      9.70%     39.47% |          64     10.53%     50.00% |          72     11.84%     61.84% |          93     15.30%     77.14% |          69     11.35%     88.49% |          70     11.51%    100.00% (Unspecified)
system.caches.L2Cache_Controller.MT.L2_Replacement_clean::total          608                       (Unspecified)
system.caches.L2Cache_Controller.M_I.L1_GET_INSTR |           0      0.00%      0.00% |           0      0.00%      0.00% |           3     60.00%     60.00% |           2     40.00%    100.00% |           0      0.00%    100.00% |           0      0.00%    100.00% |           0      0.00%    100.00% |           0      0.00%    100.00% (Unspecified)
system.caches.L2Cache_Controller.M_I.L1_GET_INSTR::total            5                       (Unspecified)
system.caches.L2Cache_Controller.M_I.L1_GETX |           0      0.00%      0.00% |           0      0.00%      0.00% |           0      0.00%      0.00% |           0      0.00%      0.00% |           0      0.00%      0.00% |           0      0.00%      0.00% |           1     50.00%     50.00% |           1     50.00%    100.00% (Unspecified)
system.caches.L2Cache_Controller.M_I.L1_GETX::total            2                       (Unspecified)
system.caches.L2Cache_Controller.M_I.Mem_Ack |      146309     12.53%     12.53% |      145895     12.49%     25.03% |      145276     12.44%     37.47% |      145358     12.45%     49.92% |      146181     12.52%     62.44% |      146070     12.51%     74.95% |      146390     12.54%     87.48% |      146150     12.52%    100.00% (Unspecified)
system.caches.L2Cache_Controller.M_I.Mem_Ack::total      1167629                       (Unspecified)
system.caches.L2Cache_Controller.MT_I.WB_Data |          18     14.40%     14.40% |          15     12.00%     26.40% |           5      4.00%     30.40% |          17     13.60%     44.00% |           8      6.40%     50.40% |          24     19.20%     69.60% |          20     16.00%     85.60% |          18     14.40%    100.00% (Unspecified)
system.caches.L2Cache_Controller.MT_I.WB_Data::total          125                       (Unspecified)
system.caches.L2Cache_Controller.MT_I.Ack_all |           4     13.79%     13.79% |           3     10.34%     24.14% |           1      3.45%     27.59% |           2      6.90%     34.48% |           4     13.79%     48.28% |           2      6.90%     55.17% |           6     20.69%     75.86% |           7     24.14%    100.00% (Unspecified)
system.caches.L2Cache_Controller.MT_I.Ack_all::total           29                       (Unspecified)
system.caches.L2Cache_Controller.MCT_I.WB_Data |          16     23.88%     23.88% |           5      7.46%     31.34% |           4      5.97%     37.31% |           5      7.46%     44.78% |           5      7.46%     52.24% |          13     19.40%     71.64% |           8     11.94%     83.58% |          11     16.42%    100.00% (Unspecified)
system.caches.L2Cache_Controller.MCT_I.WB_Data::total           67                       (Unspecified)
system.caches.L2Cache_Controller.MCT_I.Ack_all |          86     15.90%     15.90% |          74     13.68%     29.57% |          55     10.17%     39.74% |          59     10.91%     50.65% |          67     12.38%     63.03% |          80     14.79%     77.82% |          61     11.28%     89.09% |          59     10.91%    100.00% (Unspecified)
system.caches.L2Cache_Controller.MCT_I.Ack_all::total          541                       (Unspecified)
system.caches.L2Cache_Controller.I_I.Ack |         735     12.64%     12.64% |         722     12.41%     25.05% |         701     12.05%     37.10% |         655     11.26%     48.37% |         748     12.86%     61.23% |         830     14.27%     75.50% |         719     12.36%     87.86% |         706     12.14%    100.00% (Unspecified)
system.caches.L2Cache_Controller.I_I.Ack::total         5816                       (Unspecified)
system.caches.L2Cache_Controller.I_I.Ack_all |         910     12.97%     12.97% |         898     12.80%     25.77% |         861     12.27%     38.04% |         805     11.47%     49.52% |         875     12.47%     61.99% |         964     13.74%     75.73% |         845     12.04%     87.77% |         858     12.23%    100.00% (Unspecified)
system.caches.L2Cache_Controller.I_I.Ack_all::total         7016                       (Unspecified)
system.caches.L2Cache_Controller.S_I.Ack |        1929     12.27%     12.27% |        1969     12.52%     24.79% |        1984     12.62%     37.41% |        1915     12.18%     49.59% |        2057     13.08%     62.67% |        1960     12.47%     75.13% |        1952     12.41%     87.55% |        1958     12.45%    100.00% (Unspecified)
system.caches.L2Cache_Controller.S_I.Ack::total        15724                       (Unspecified)
system.caches.L2Cache_Controller.S_I.Ack_all |        1929     12.27%     12.27% |        1969     12.52%     24.79% |        1984     12.62%     37.41% |        1915     12.18%     49.59% |        2057     13.08%     62.67% |        1960     12.47%     75.13% |        1952     12.41%     87.55% |        1958     12.45%    100.00% (Unspecified)
system.caches.L2Cache_Controller.S_I.Ack_all::total        15724                       (Unspecified)
system.caches.L2Cache_Controller.ISS.L1_GETS |          29     49.15%     49.15% |           4      6.78%     55.93% |           4      6.78%     62.71% |           3      5.08%     67.80% |           5      8.47%     76.27% |           6     10.17%     86.44% |           5      8.47%     94.92% |           3      5.08%    100.00% (Unspecified)
system.caches.L2Cache_Controller.ISS.L1_GETS::total           59                       (Unspecified)
system.caches.L2Cache_Controller.ISS.Mem_Data |      161842     12.52%     12.52% |      161423     12.49%     25.01% |      160880     12.45%     37.46% |      160973     12.46%     49.92% |      161781     12.52%     62.44% |      161652     12.51%     74.95% |      162027     12.54%     87.49% |      161727     12.51%    100.00% (Unspecified)
system.caches.L2Cache_Controller.ISS.Mem_Data::total      1292305                       (Unspecified)
system.caches.L2Cache_Controller.IS.L1_GET_INSTR |          95     14.64%     14.64% |          99     15.25%     29.89% |          82     12.63%     42.53% |          76     11.71%     54.24% |          87     13.41%     67.64% |          72     11.09%     78.74% |          64      9.86%     88.60% |          74     11.40%    100.00% (Unspecified)
system.caches.L2Cache_Controller.IS.L1_GET_INSTR::total          649                       (Unspecified)
system.caches.L2Cache_Controller.IS.Mem_Data |         563     13.75%     13.75% |         567     13.84%     27.59% |         506     12.35%     39.94% |         486     11.87%     51.81% |         507     12.38%     64.18% |         501     12.23%     76.42% |         458     11.18%     87.60% |         508     12.40%    100.00% (Unspecified)
system.caches.L2Cache_Controller.IS.Mem_Data::total         4096                       (Unspecified)
system.caches.L2Cache_Controller.IM.Mem_Data |         288     12.52%     12.52% |         289     12.57%     25.09% |         274     11.91%     37.00% |         283     12.30%     49.30% |         277     12.04%     61.35% |         301     13.09%     74.43% |         289     12.57%     87.00% |         299     13.00%    100.00% (Unspecified)
system.caches.L2Cache_Controller.IM.Mem_Data::total         2300                       (Unspecified)
system.caches.L2Cache_Controller.SS_MB.L1_GETS |           1      0.31%      0.31% |           0      0.00%      0.31% |           0      0.00%      0.31% |           0      0.00%      0.31% |           3      0.92%      1.22% |           0      0.00%      1.22% |         323     98.78%    100.00% |           0      0.00%    100.00% (Unspecified)
system.caches.L2Cache_Controller.SS_MB.L1_GETS::total          327                       (Unspecified)
system.caches.L2Cache_Controller.SS_MB.L1_UPGRADE |           1     50.00%     50.00% |           0      0.00%     50.00% |           0      0.00%     50.00% |           0      0.00%     50.00% |           0      0.00%     50.00% |           0      0.00%     50.00% |           0      0.00%     50.00% |           1     50.00%    100.00% (Unspecified)
system.caches.L2Cache_Controller.SS_MB.L1_UPGRADE::total            2                       (Unspecified)
system.caches.L2Cache_Controller.SS_MB.Exclusive_Unblock |        5628     12.64%     12.64% |        5663     12.72%     25.35% |        5564     12.49%     37.85% |        5432     12.20%     50.05% |        5332     11.97%     62.02% |        5552     12.47%     74.49% |        6027     13.53%     88.02% |        5335     11.98%    100.00% (Unspecified)
system.caches.L2Cache_Controller.SS_MB.Exclusive_Unblock::total        44533                       (Unspecified)
system.caches.L2Cache_Controller.MT_MB.L1_GETS |           1     25.00%     25.00% |           0      0.00%     25.00% |           1     25.00%     50.00% |           0      0.00%     50.00% |           0      0.00%     50.00% |           1     25.00%     75.00% |           0      0.00%     75.00% |           1     25.00%    100.00% (Unspecified)
system.caches.L2Cache_Controller.MT_MB.L1_GETS::total            4                       (Unspecified)
system.caches.L2Cache_Controller.MT_MB.Exclusive_Unblock |      221148     12.56%     12.56% |      221115     12.56%     25.11% |      219357     12.46%     37.57% |      218422     12.40%     49.97% |      219708     12.48%     62.45% |      220793     12.54%     74.98% |      220714     12.53%     87.52% |      219865     12.48%    100.00% (Unspecified)
system.caches.L2Cache_Controller.MT_MB.Exclusive_Unblock::total      1761122                       (Unspecified)
system.caches.L2Cache_Controller.MT_IIB.WB_Data |        3400     12.76%     12.76% |        3341     12.54%     25.31% |        3138     11.78%     37.09% |        3220     12.09%     49.18% |        3227     12.11%     61.29% |        3299     12.39%     73.68% |        3794     14.24%     87.92% |        3218     12.08%    100.00% (Unspecified)
system.caches.L2Cache_Controller.MT_IIB.WB_Data::total        26637                       (Unspecified)
system.caches.L2Cache_Controller.MT_IIB.WB_Data_clean |        4730     12.38%     12.38% |        4841     12.67%     25.06% |        4965     13.00%     38.06% |        4650     12.17%     50.23% |        4713     12.34%     62.57% |        4891     12.81%     75.38% |        4769     12.49%     87.86% |        4636     12.14%    100.00% (Unspecified)
system.caches.L2Cache_Controller.MT_IIB.WB_Data_clean::total        38195                       (Unspecified)
system.caches.L2Cache_Controller.MT_SB.L1_UPGRADE |           0      0.00%      0.00% |           0      0.00%      0.00% |           0      0.00%      0.00% |           0      0.00%      0.00% |           0      0.00%      0.00% |           0      0.00%      0.00% |         272    100.00%    100.00% |           0      0.00%    100.00% (Unspecified)
system.caches.L2Cache_Controller.MT_SB.L1_UPGRADE::total          272                       (Unspecified)
system.caches.L2Cache_Controller.MT_SB.Unblock |        8130     12.54%     12.54% |        8182     12.62%     25.16% |        8103     12.50%     37.66% |        7870     12.14%     49.80% |        7940     12.25%     62.04% |        8190     12.63%     74.68% |        8563     13.21%     87.89% |        7854     12.11%    100.00% (Unspecified)
system.caches.L2Cache_Controller.MT_SB.Unblock::total        64832                       (Unspecified)
system.caches.RequestType.LD.latency_hist_seqr::bucket_size          512                       (Unspecified)
system.caches.RequestType.LD.latency_hist_seqr::max_bucket         5119                       (Unspecified)
system.caches.RequestType.LD.latency_hist_seqr::samples     35236527                       (Unspecified)
[...]
system.timingCpu0.exec_context.thread_0.statExecutedInstType::SimdFloatMultAcc            0      0.00%     82.70% # Class of executed instruction. (Count)
system.timingCpu0.exec_context.thread_0.statExecutedInstType::SimdFloatSqrt            0      0.00%     82.70% # Class of executed instruction. (Count)
system.timingCpu0.exec_context.thread_0.statExecutedInstType::SimdReduceAdd            0      0.00%     82.70% # Class of executed instruction. (Count)
system.timingCpu0.exec_context.thread_0.statExecutedInstType::SimdReduceAlu            0      0.00%     82.70% # Class of executed instruction. (Count)
system.timingCpu0.exec_context.thread_0.statExecutedInstType::SimdReduceCmp            0      0.00%     82.70% # Class of executed instruction. (Count)
system.timingCpu0.exec_context.thread_0.statExecutedInstType::SimdFloatReduceAdd            0      0.00%     82.70% # Class of executed instruction. (Count)
system.timingCpu0.exec_context.thread_0.statExecutedInstType::SimdFloatReduceCmp            0      0.00%     82.70% # Class of executed instruction. (Count)
system.timingCpu0.exec_context.thread_0.statExecutedInstType::SimdAes            0      0.00%     82.70% # Class of executed instruction. (Count)
system.timingCpu0.exec_context.thread_0.statExecutedInstType::SimdAesMix            0      0.00%     82.70% # Class of executed instruction. (Count)
system.timingCpu0.exec_context.thread_0.statExecutedInstType::SimdSha1Hash            0      0.00%     82.70% # Class of executed instruction. (Count)
system.timingCpu0.exec_context.thread_0.statExecutedInstType::SimdSha1Hash2            0      0.00%     82.70% # Class of executed instruction. (Count)
system.timingCpu0.exec_context.thread_0.statExecutedInstType::SimdSha256Hash            0      0.00%     82.70% # Class of executed instruction. (Count)
system.timingCpu0.exec_context.thread_0.statExecutedInstType::SimdSha256Hash2            0      0.00%     82.70% # Class of executed instruction. (Count)
system.timingCpu0.exec_context.thread_0.statExecutedInstType::SimdShaSigma2            0      0.00%     82.70% # Class of executed instruction. (Count)
system.timingCpu0.exec_context.thread_0.statExecutedInstType::SimdShaSigma3            0      0.00%     82.70% # Class of executed instruction. (Count)
system.timingCpu0.exec_context.thread_0.statExecutedInstType::SimdPredAlu            0      0.00%     82.70% # Class of executed instruction. (Count)
system.timingCpu0.exec_context.thread_0.statExecutedInstType::MemRead     16223292     16.36%     99.06% # Class of executed instruction. (Count)
system.timingCpu0.exec_context.thread_0.statExecutedInstType::MemWrite       928999      0.94%    100.00% # Class of executed instruction. (Count)
system.timingCpu0.exec_context.thread_0.statExecutedInstType::FloatMemRead           70      0.00%    100.00% # Class of executed instruction. (Count)
system.timingCpu0.exec_context.thread_0.statExecutedInstType::FloatMemWrite           36      0.00%    100.00% # Class of executed instruction. (Count)
system.timingCpu0.exec_context.thread_0.statExecutedInstType::IprAccess            0      0.00%    100.00% # Class of executed instruction. (Count)
system.timingCpu0.exec_context.thread_0.statExecutedInstType::InstPrefetch            0      0.00%    100.00% # Class of executed instruction. (Count)
system.timingCpu0.exec_context.thread_0.statExecutedInstType::total     99140565                       # Class of executed instruction. (Count)
system.timingCpu0.mmu.dtb.rdAccesses         16658616                       # TLB accesses on read requests (Count)
system.timingCpu0.mmu.dtb.wrAccesses           929411                       # TLB accesses on write requests (Count)
system.timingCpu0.mmu.dtb.rdMisses             435254                       # TLB misses on read requests (Count)
system.timingCpu0.mmu.dtb.wrMisses                376                       # TLB misses on write requests (Count)
system.timingCpu0.mmu.dtb.walker.power_state.pwrStateResidencyTicks::UNDEFINED 147934886735501                       # Cumulative time (in ticks) in various power states (Tick)
system.timingCpu0.mmu.itb.rdAccesses                0                       # TLB accesses on read requests (Count)
system.timingCpu0.mmu.itb.wrAccesses         79177160                       # TLB accesses on write requests (Count)
system.timingCpu0.mmu.itb.rdMisses                  0                       # TLB misses on read requests (Count)
system.timingCpu0.mmu.itb.wrMisses                462                       # TLB misses on write requests (Count)
system.timingCpu0.mmu.itb.walker.power_state.pwrStateResidencyTicks::UNDEFINED 147934886735501                       # Cumulative time (in ticks) in various power states (Tick)
system.timingCpu0.power_state.pwrStateResidencyTicks::OFF 147934886735501                       # Cumulative time (in ticks) in various power states (Tick)
system.timingCpu0.thread_0.numInsts                 0                       # Number of Instructions committed (Count)
system.timingCpu0.thread_0.numOps                   0                       # Number of Ops committed (Count)
system.timingCpu0.thread_0.numMemRefs               0                       # Number of Memory References (Count)
system.timingCpu1.numCycles                 473521065                       # Number of cpu cycles simulated (Cycle)
system.timingCpu1.numWorkItemsStarted               0                       # Number of work items this cpu started (Count)
system.timingCpu1.numWorkItemsCompleted             1                       # Number of work items this cpu completed (Count)
system.timingCpu1.exec_context.thread_0.numInsts     62280315                       # Number of instructions committed (Count)
system.timingCpu1.exec_context.thread_0.numOps     97626050                       # Number of ops (including micro ops) committed (Count)
system.timingCpu1.exec_context.thread_0.numIntAluAccesses     96761639                       # Number of integer alu accesses (Count)
system.timingCpu1.exec_context.thread_0.numFpAluAccesses         4418                       # Number of float alu accesses (Count)
system.timingCpu1.exec_context.thread_0.numVecAluAccesses            0                       # Number of vector alu accesses (Count)
system.timingCpu1.exec_context.thread_0.numCallsReturns        60802                       # Number of times a function call or return occured (Count)
system.timingCpu1.exec_context.thread_0.numCondCtrlInsts      9910375                       # Number of instructions that are conditional controls (Count)
system.timingCpu1.exec_context.thread_0.numIntInsts     96761639                       # Number of integer instructions (Count)
system.timingCpu1.exec_context.thread_0.numFpInsts         4418                       # Number of float instructions (Count)
system.timingCpu1.exec_context.thread_0.numVecInsts            0                       # Number of vector instructions (Count)
system.timingCpu1.exec_context.thread_0.numIntRegReads    135003735                       # Number of times the integer registers were read (Count)
system.timingCpu1.exec_context.thread_0.numIntRegWrites     73105587                       # Number of times the integer registers were written (Count)
system.timingCpu1.exec_context.thread_0.numFpRegReads         4853                       # Number of times the floating registers were read (Count)
system.timingCpu1.exec_context.thread_0.numFpRegWrites         1660                       # Number of times the floating registers were written (Count)
system.timingCpu1.exec_context.thread_0.numVecRegReads            0                       # Number of times the vector registers were read (Count)
system.timingCpu1.exec_context.thread_0.numVecRegWrites            0                       # Number of times the vector registers were written (Count)
system.timingCpu1.exec_context.thread_0.numVecPredRegReads            0                       # Number of times the predicate registers were read (Count)
system.timingCpu1.exec_context.thread_0.numVecPredRegWrites            0                       # Number of times the predicate registers were written (Count)
system.timingCpu1.exec_context.thread_0.numCCRegReads     75145379                       # Number of times the CC registers were read (Count)
system.timingCpu1.exec_context.thread_0.numCCRegWrites     42813135                       # Number of times the CC registers were written (Count)
system.timingCpu1.exec_context.thread_0.numMiscRegReads     40362689                       # Number of times the Misc registers were read (Count)
system.timingCpu1.exec_context.thread_0.numMiscRegWrites         7318                       # Number of times the Misc registers were written (Count)
system.timingCpu1.exec_context.thread_0.numMemRefs     17228913                       # Number of memory refs (Count)
system.timingCpu1.exec_context.thread_0.numLoadInsts     16177602                       # Number of load instructions (Count)
system.timingCpu1.exec_context.thread_0.numStoreInsts      1051311                       # Number of store instructions (Count)
system.timingCpu1.exec_context.thread_0.numIdleCycles            0                       # Number of idle cycles (Cycle)
system.timingCpu1.exec_context.thread_0.numBusyCycles    473521065                       # Number of busy cycles (Cycle)
system.timingCpu1.exec_context.thread_0.notIdleFraction            1                       # Percentage of non-idle cycles (Ratio)
system.timingCpu1.exec_context.thread_0.idleFraction            0                       # Percentage of idle cycles (Ratio)
system.timingCpu1.exec_context.thread_0.numBranches     11573004                       # Number of branches fetched (Count)
system.timingCpu1.exec_context.thread_0.statExecutedInstType::No_OpClass         2074      0.00%      0.00% # Class of executed instruction. (Count)
system.timingCpu1.exec_context.thread_0.statExecutedInstType::IntAlu     80333327     82.29%     82.29% # Class of executed instruction. (Count)
system.timingCpu1.exec_context.thread_0.statExecutedInstType::IntMult        13734      0.01%     82.30% # Class of executed instruction. (Count)
system.timingCpu1.exec_context.thread_0.statExecutedInstType::IntDiv        46880      0.05%     82.35% # Class of executed instruction. (Count)
system.timingCpu1.exec_context.thread_0.statExecutedInstType::FloatAdd          138      0.00%     82.35% # Class of executed instruction. (Count)
system.timingCpu1.exec_context.thread_0.statExecutedInstType::FloatCmp            4      0.00%     82.35% # Class of executed instruction. (Count)
system.timingCpu1.exec_context.thread_0.statExecutedInstType::FloatCvt           96      0.00%     82.35% # Class of executed instruction. (Count)
system.timingCpu1.exec_context.thread_0.statExecutedInstType::FloatMult            5      0.00%     82.35% # Class of executed instruction. (Count)
system.timingCpu1.exec_context.thread_0.statExecutedInstType::FloatMultAcc            0      0.00%     82.35% # Class of executed instruction. (Count)
system.timingCpu1.exec_context.thread_0.statExecutedInstType::FloatDiv            4      0.00%     82.35% # Class of executed instruction. (Count)
system.timingCpu1.exec_context.thread_0.statExecutedInstType::FloatMisc            0      0.00%     82.35% # Class of executed instruction. (Count)
system.timingCpu1.exec_context.thread_0.statExecutedInstType::FloatSqrt            0      0.00%     82.35% # Class of executed instruction. (Count)
system.timingCpu1.exec_context.thread_0.statExecutedInstType::SimdAdd           74      0.00%     82.35% # Class of executed instruction. (Count)
system.timingCpu1.exec_context.thread_0.statExecutedInstType::SimdAddAcc            0      0.00%     82.35% # Class of executed instruction. (Count)
system.timingCpu1.exec_context.thread_0.statExecutedInstType::SimdAlu          269      0.00%     82.35% # Class of executed instruction. (Count)
system.timingCpu1.exec_context.thread_0.statExecutedInstType::SimdCmp            0      0.00%     82.35% # Class of executed instruction. (Count)
system.timingCpu1.exec_context.thread_0.statExecutedInstType::SimdCvt          182      0.00%     82.35% # Class of executed instruction. (Count)
system.timingCpu1.exec_context.thread_0.statExecutedInstType::SimdMisc          221      0.00%     82.35% # Class of executed instruction. (Count)
system.timingCpu1.exec_context.thread_0.statExecutedInstType::SimdMult            0      0.00%     82.35% # Class of executed instruction. (Count)
system.timingCpu1.exec_context.thread_0.statExecutedInstType::SimdMultAcc            0      0.00%     82.35% # Class of executed instruction. (Count)
system.timingCpu1.exec_context.thread_0.statExecutedInstType::SimdShift           49      0.00%     82.35% # Class of executed instruction. (Count)
system.timingCpu1.exec_context.thread_0.statExecutedInstType::SimdShiftAcc            0      0.00%     82.35% # Class of executed instruction. (Count)
system.timingCpu1.exec_context.thread_0.statExecutedInstType::SimdDiv            0      0.00%     82.35% # Class of executed instruction. (Count)
system.timingCpu1.exec_context.thread_0.statExecutedInstType::SimdSqrt            0      0.00%     82.35% # Class of executed instruction. (Count)
system.timingCpu1.exec_context.thread_0.statExecutedInstType::SimdFloatAdd           14      0.00%     82.35% # Class of executed instruction. (Count)
system.timingCpu1.exec_context.thread_0.statExecutedInstType::SimdFloatAlu            0      0.00%     82.35% # Class of executed instruction. (Count)
system.timingCpu1.exec_context.thread_0.statExecutedInstType::SimdFloatCmp            0      0.00%     82.35% # Class of executed instruction. (Count)
system.timingCpu1.exec_context.thread_0.statExecutedInstType::SimdFloatCvt           62      0.00%     82.35% # Class of executed instruction. (Count)
system.timingCpu1.exec_context.thread_0.statExecutedInstType::SimdFloatDiv            2      0.00%     82.35% # Class of executed instruction. (Count)
system.timingCpu1.exec_context.thread_0.statExecutedInstType::SimdFloatMisc            0      0.00%     82.35% # Class of executed instruction. (Count)
system.timingCpu1.exec_context.thread_0.statExecutedInstType::SimdFloatMult            2      0.00%     82.35% # Class of executed instruction. (Count)
system.timingCpu1.exec_context.thread_0.statExecutedInstType::SimdFloatMultAcc            0      0.00%     82.35% # Class of executed instruction. (Count)
system.timingCpu1.exec_context.thread_0.statExecutedInstType::SimdFloatSqrt            0      0.00%     82.35% # Class of executed instruction. (Count)
system.timingCpu1.exec_context.thread_0.statExecutedInstType::SimdReduceAdd            0      0.00%     82.35% # Class of executed instruction. (Count)
system.timingCpu1.exec_context.thread_0.statExecutedInstType::SimdReduceAlu            0      0.00%     82.35% # Class of executed instruction. (Count)
system.timingCpu1.exec_context.thread_0.statExecutedInstType::SimdReduceCmp            0      0.00%     82.35% # Class of executed instruction. (Count)
system.timingCpu1.exec_context.thread_0.statExecutedInstType::SimdFloatReduceAdd            0      0.00%     82.35% # Class of executed instruction. (Count)
system.timingCpu1.exec_context.thread_0.statExecutedInstType::SimdFloatReduceCmp            0      0.00%     82.35% # Class of executed instruction. (Count)
system.timingCpu1.exec_context.thread_0.statExecutedInstType::SimdAes            0      0.00%     82.35% # Class of executed instruction. (Count)
system.timingCpu1.exec_context.thread_0.statExecutedInstType::SimdAesMix            0      0.00%     82.35% # Class of executed instruction. (Count)
system.timingCpu1.exec_context.thread_0.statExecutedInstType::SimdSha1Hash            0      0.00%     82.35% # Class of executed instruction. (Count)
system.timingCpu1.exec_context.thread_0.statExecutedInstType::SimdSha1Hash2            0      0.00%     82.35% # Class of executed instruction. (Count)
system.timingCpu1.exec_context.thread_0.statExecutedInstType::SimdSha256Hash            0      0.00%     82.35% # Class of executed instruction. (Count)
system.timingCpu1.exec_context.thread_0.statExecutedInstType::SimdSha256Hash2            0      0.00%     82.35% # Class of executed instruction. (Count)
system.timingCpu1.exec_context.thread_0.statExecutedInstType::SimdShaSigma2            0      0.00%     82.35% # Class of executed instruction. (Count)
system.timingCpu1.exec_context.thread_0.statExecutedInstType::SimdShaSigma3            0      0.00%     82.35% # Class of executed instruction. (Count)
system.timingCpu1.exec_context.thread_0.statExecutedInstType::SimdPredAlu            0      0.00%     82.35% # Class of executed instruction. (Count)
system.timingCpu1.exec_context.thread_0.statExecutedInstType::MemRead     16176973     16.57%     98.92% # Class of executed instruction. (Count)
system.timingCpu1.exec_context.thread_0.statExecutedInstType::MemWrite      1048800      1.07%    100.00% # Class of executed instruction. (Count)
system.timingCpu1.exec_context.thread_0.statExecutedInstType::FloatMemRead          629      0.00%    100.00% # Class of executed instruction. (Count)
system.timingCpu1.exec_context.thread_0.statExecutedInstType::FloatMemWrite         2511      0.00%    100.00% # Class of executed instruction. (Count)
system.timingCpu1.exec_context.thread_0.statExecutedInstType::IprAccess            0      0.00%    100.00% # Class of executed instruction. (Count)
system.timingCpu1.exec_context.thread_0.statExecutedInstType::InstPrefetch            0      0.00%    100.00% # Class of executed instruction. (Count)
system.timingCpu1.exec_context.thread_0.statExecutedInstType::total     97626050                       # Class of executed instruction. (Count)
system.timingCpu1.mmu.dtb.rdAccesses         16613167                       # TLB accesses on read requests (Count)
system.timingCpu1.mmu.dtb.wrAccesses          1051344                       # TLB accesses on write requests (Count)
system.timingCpu1.mmu.dtb.rdMisses             436492                       # TLB misses on read requests (Count)
system.timingCpu1.mmu.dtb.wrMisses                360                       # TLB misses on write requests (Count)
system.timingCpu1.mmu.dtb.walker.power_state.pwrStateResidencyTicks::UNDEFINED 147934886735501                       # Cumulative time (in ticks) in various power states (Tick)
system.timingCpu1.mmu.itb.rdAccesses                0                       # TLB accesses on read requests (Count)
system.timingCpu1.mmu.itb.wrAccesses         77974237                       # TLB accesses on write requests (Count)
system.timingCpu1.mmu.itb.rdMisses                  0                       # TLB misses on read requests (Count)
system.timingCpu1.mmu.itb.wrMisses                695                       # TLB misses on write requests (Count)
system.timingCpu1.mmu.itb.walker.power_state.pwrStateResidencyTicks::UNDEFINED 147934886735501                       # Cumulative time (in ticks) in various power states (Tick)
system.timingCpu1.power_state.pwrStateResidencyTicks::OFF 147934886735501                       # Cumulative time (in ticks) in various power states (Tick)
system.timingCpu1.thread_0.numInsts                 0                       # Number of Instructions committed (Count)
system.timingCpu1.thread_0.numOps                   0                       # Number of Ops committed (Count)
system.timingCpu1.thread_0.numMemRefs               0                       # Number of Memory References (Count)
system.workload.inst.arm                            0                       # number of arm instructions executed (Count)
system.workload.inst.quiesce                        0                       # number of quiesce instructions executed (Count)

---------- End Simulation Statistics   ----------
