
---------- Begin Simulation Statistics ----------
simSeconds                                   0.010000                       # Number of seconds simulated (Second)
simTicks                                  10000020740                       # Number of ticks simulated (Tick)
finalTick                                 10000020740                       # Number of ticks from beginning of simulation (restored from checkpoints and never reset) (Tick)
simFreq                                  1000000000000                       # The number of ticks per simulated second ((Tick/Second))
hostSeconds                                     38.98                       # Real time elapsed on the host (Second)
hostTickRate                                256547168                       # The number of ticks simulated per host second (ticks/s) ((Tick/Second))
hostMemory                                    3961312                       # Number of bytes of host memory used (Byte)
system.clk_domain.clock                           250                       # Clock period in ticks (Tick)
system.clk_domain.voltage_domain.voltage            1                       # Voltage in Volts (Volt)
system.far_mem_ctrl.avgPriority_writebacks::samples   1457739.00                       # Average QoS priority value for accepted requests (Count)
system.far_mem_ctrl.priorityMinLatency   0.000000017492                       # per QoS priority minimum request to response latency (Second)
system.far_mem_ctrl.priorityMaxLatency   0.000178601498                       # per QoS priority maximum request to response latency (Second)
system.far_mem_ctrl.numReadWriteTurnArounds            0                       # Number of turnarounds from READ to WRITE (Count)
system.far_mem_ctrl.numWriteReadTurnArounds            0                       # Number of turnarounds from WRITE to READ (Count)
system.far_mem_ctrl.numStayReadState          1637532                       # Number of times bus staying in READ state (Count)
system.far_mem_ctrl.numStayWriteState               0                       # Number of times bus staying in WRITE state (Count)
system.far_mem_ctrl.readReqs                   878398                       # Number of read requests accepted (Count)
system.far_mem_ctrl.writeReqs                 1324191                       # Number of write requests accepted (Count)
system.far_mem_ctrl.readBursts                 878398                       # Number of controller read bursts, including those serviced by the write queue (Count)
system.far_mem_ctrl.writeBursts               1324191                       # Number of controller write bursts, including those merged in the write queue (Count)
system.far_mem_ctrl.servicedByWrQ                 483                       # Number of controller read bursts serviced by the write queue (Count)
system.far_mem_ctrl.mergedWrBursts             744367                       # Number of controller write bursts merged with an existing one (Count)
system.far_mem_ctrl.avgRdQLen                   29.48                       # Average read queue length when enqueuing ((Count/Tick))
system.far_mem_ctrl.avgWrQLen                   71.84                       # Average write queue length when enqueuing ((Count/Tick))
system.far_mem_ctrl.numRdRetry                  98908                       # Number of times read queue was full causing retry (Count)
system.far_mem_ctrl.numWrRetry                  98514                       # Number of times write queue was full causing retry (Count)
system.far_mem_ctrl.readPktSize::0                  0                       # Read request sizes (log2) (Count)
system.far_mem_ctrl.readPktSize::1                  0                       # Read request sizes (log2) (Count)
system.far_mem_ctrl.readPktSize::2                  0                       # Read request sizes (log2) (Count)
system.far_mem_ctrl.readPktSize::3                  0                       # Read request sizes (log2) (Count)
system.far_mem_ctrl.readPktSize::4                  0                       # Read request sizes (log2) (Count)
system.far_mem_ctrl.readPktSize::5                  0                       # Read request sizes (log2) (Count)
system.far_mem_ctrl.readPktSize::6             878398                       # Read request sizes (log2) (Count)
system.far_mem_ctrl.writePktSize::0                 0                       # Write request sizes (log2) (Count)
system.far_mem_ctrl.writePktSize::1                 0                       # Write request sizes (log2) (Count)
system.far_mem_ctrl.writePktSize::2                 0                       # Write request sizes (log2) (Count)
system.far_mem_ctrl.writePktSize::3                 0                       # Write request sizes (log2) (Count)
system.far_mem_ctrl.writePktSize::4                 0                       # Write request sizes (log2) (Count)
system.far_mem_ctrl.writePktSize::5                 0                       # Write request sizes (log2) (Count)
system.far_mem_ctrl.writePktSize::6           1324191                       # Write request sizes (log2) (Count)
system.far_mem_ctrl.rdQLenPdf::0                 4218                       # What read queue length does an incoming req see (Count)
system.far_mem_ctrl.rdQLenPdf::1                 4366                       # What read queue length does an incoming req see (Count)
system.far_mem_ctrl.rdQLenPdf::2                 4604                       # What read queue length does an incoming req see (Count)
system.far_mem_ctrl.rdQLenPdf::3                 5115                       # What read queue length does an incoming req see (Count)
system.far_mem_ctrl.rdQLenPdf::4                 6780                       # What read queue length does an incoming req see (Count)
system.far_mem_ctrl.rdQLenPdf::5                10277                       # What read queue length does an incoming req see (Count)
system.far_mem_ctrl.rdQLenPdf::6                16869                       # What read queue length does an incoming req see (Count)
system.far_mem_ctrl.rdQLenPdf::7                27604                       # What read queue length does an incoming req see (Count)
system.far_mem_ctrl.rdQLenPdf::8                39062                       # What read queue length does an incoming req see (Count)
system.far_mem_ctrl.rdQLenPdf::9                48708                       # What read queue length does an incoming req see (Count)
system.far_mem_ctrl.rdQLenPdf::10               52192                       # What read queue length does an incoming req see (Count)
system.far_mem_ctrl.rdQLenPdf::11               47142                       # What read queue length does an incoming req see (Count)
system.far_mem_ctrl.rdQLenPdf::12               39775                       # What read queue length does an incoming req see (Count)
system.far_mem_ctrl.rdQLenPdf::13               33095                       # What read queue length does an incoming req see (Count)
system.far_mem_ctrl.rdQLenPdf::14               27765                       # What read queue length does an incoming req see (Count)
system.far_mem_ctrl.rdQLenPdf::15               24258                       # What read queue length does an incoming req see (Count)
system.far_mem_ctrl.rdQLenPdf::16               21570                       # What read queue length does an incoming req see (Count)
system.far_mem_ctrl.rdQLenPdf::17               19797                       # What read queue length does an incoming req see (Count)
system.far_mem_ctrl.rdQLenPdf::18               18694                       # What read queue length does an incoming req see (Count)
system.far_mem_ctrl.rdQLenPdf::19               18189                       # What read queue length does an incoming req see (Count)
system.far_mem_ctrl.rdQLenPdf::20               17590                       # What read queue length does an incoming req see (Count)
system.far_mem_ctrl.rdQLenPdf::21               17079                       # What read queue length does an incoming req see (Count)
system.far_mem_ctrl.rdQLenPdf::22               17000                       # What read queue length does an incoming req see (Count)
system.far_mem_ctrl.rdQLenPdf::23               16118                       # What read queue length does an incoming req see (Count)
system.far_mem_ctrl.rdQLenPdf::24               15682                       # What read queue length does an incoming req see (Count)
system.far_mem_ctrl.rdQLenPdf::25               14975                       # What read queue length does an incoming req see (Count)
system.far_mem_ctrl.rdQLenPdf::26               14584                       # What read queue length does an incoming req see (Count)
system.far_mem_ctrl.rdQLenPdf::27               13885                       # What read queue length does an incoming req see (Count)
system.far_mem_ctrl.rdQLenPdf::28               13267                       # What read queue length does an incoming req see (Count)
system.far_mem_ctrl.rdQLenPdf::29               12582                       # What read queue length does an incoming req see (Count)
system.far_mem_ctrl.rdQLenPdf::30               11948                       # What read queue length does an incoming req see (Count)
system.far_mem_ctrl.rdQLenPdf::31               11531                       # What read queue length does an incoming req see (Count)
system.far_mem_ctrl.rdQLenPdf::32               10957                       # What read queue length does an incoming req see (Count)
system.far_mem_ctrl.rdQLenPdf::33               10377                       # What read queue length does an incoming req see (Count)
system.far_mem_ctrl.rdQLenPdf::34                9950                       # What read queue length does an incoming req see (Count)
system.far_mem_ctrl.rdQLenPdf::35                9435                       # What read queue length does an incoming req see (Count)
system.far_mem_ctrl.rdQLenPdf::36                8708                       # What read queue length does an incoming req see (Count)
system.far_mem_ctrl.rdQLenPdf::37                8303                       # What read queue length does an incoming req see (Count)
system.far_mem_ctrl.rdQLenPdf::38                8071                       # What read queue length does an incoming req see (Count)
system.far_mem_ctrl.rdQLenPdf::39                7781                       # What read queue length does an incoming req see (Count)
system.far_mem_ctrl.rdQLenPdf::40                7112                       # What read queue length does an incoming req see (Count)
system.far_mem_ctrl.rdQLenPdf::41                7029                       # What read queue length does an incoming req see (Count)
system.far_mem_ctrl.rdQLenPdf::42                6502                       # What read queue length does an incoming req see (Count)
system.far_mem_ctrl.rdQLenPdf::43                6176                       # What read queue length does an incoming req see (Count)
system.far_mem_ctrl.rdQLenPdf::44                5993                       # What read queue length does an incoming req see (Count)
system.far_mem_ctrl.rdQLenPdf::45                5517                       # What read queue length does an incoming req see (Count)
system.far_mem_ctrl.rdQLenPdf::46                5312                       # What read queue length does an incoming req see (Count)
system.far_mem_ctrl.rdQLenPdf::47                4982                       # What read queue length does an incoming req see (Count)
system.far_mem_ctrl.rdQLenPdf::48                4839                       # What read queue length does an incoming req see (Count)
system.far_mem_ctrl.rdQLenPdf::49                4538                       # What read queue length does an incoming req see (Count)
system.far_mem_ctrl.rdQLenPdf::50                4362                       # What read queue length does an incoming req see (Count)
system.far_mem_ctrl.rdQLenPdf::51                4226                       # What read queue length does an incoming req see (Count)
system.far_mem_ctrl.rdQLenPdf::52                4116                       # What read queue length does an incoming req see (Count)
system.far_mem_ctrl.rdQLenPdf::53                3740                       # What read queue length does an incoming req see (Count)
system.far_mem_ctrl.rdQLenPdf::54                3734                       # What read queue length does an incoming req see (Count)
system.far_mem_ctrl.rdQLenPdf::55                3555                       # What read queue length does an incoming req see (Count)
system.far_mem_ctrl.rdQLenPdf::56                3355                       # What read queue length does an incoming req see (Count)
system.far_mem_ctrl.rdQLenPdf::57                3311                       # What read queue length does an incoming req see (Count)
system.far_mem_ctrl.rdQLenPdf::58                3200                       # What read queue length does an incoming req see (Count)
system.far_mem_ctrl.rdQLenPdf::59                3101                       # What read queue length does an incoming req see (Count)
system.far_mem_ctrl.rdQLenPdf::60                2961                       # What read queue length does an incoming req see (Count)
system.far_mem_ctrl.rdQLenPdf::61                2801                       # What read queue length does an incoming req see (Count)
system.far_mem_ctrl.rdQLenPdf::62                2672                       # What read queue length does an incoming req see (Count)
system.far_mem_ctrl.rdQLenPdf::63               54878                       # What read queue length does an incoming req see (Count)
system.far_mem_ctrl.wrQLenPdf::0                    1                       # What write queue length does an incoming req see (Count)
system.far_mem_ctrl.wrQLenPdf::1                    1                       # What write queue length does an incoming req see (Count)
system.far_mem_ctrl.wrQLenPdf::2                    1                       # What write queue length does an incoming req see (Count)
system.far_mem_ctrl.wrQLenPdf::3                    1                       # What write queue length does an incoming req see (Count)
system.far_mem_ctrl.wrQLenPdf::4                    1                       # What write queue length does an incoming req see (Count)
system.far_mem_ctrl.wrQLenPdf::5                    1                       # What write queue length does an incoming req see (Count)
system.far_mem_ctrl.wrQLenPdf::6                    1                       # What write queue length does an incoming req see (Count)
system.far_mem_ctrl.wrQLenPdf::7                    1                       # What write queue length does an incoming req see (Count)
system.far_mem_ctrl.wrQLenPdf::8                    1                       # What write queue length does an incoming req see (Count)
system.far_mem_ctrl.wrQLenPdf::9                    1                       # What write queue length does an incoming req see (Count)
system.far_mem_ctrl.wrQLenPdf::10                   1                       # What write queue length does an incoming req see (Count)
system.far_mem_ctrl.wrQLenPdf::11                   1                       # What write queue length does an incoming req see (Count)
system.far_mem_ctrl.wrQLenPdf::12                   1                       # What write queue length does an incoming req see (Count)
system.far_mem_ctrl.wrQLenPdf::13                   1                       # What write queue length does an incoming req see (Count)
system.far_mem_ctrl.wrQLenPdf::14                   1                       # What write queue length does an incoming req see (Count)
system.far_mem_ctrl.wrQLenPdf::15                   1                       # What write queue length does an incoming req see (Count)
system.far_mem_ctrl.wrQLenPdf::16                   1                       # What write queue length does an incoming req see (Count)
system.far_mem_ctrl.wrQLenPdf::17                   1                       # What write queue length does an incoming req see (Count)
system.far_mem_ctrl.wrQLenPdf::18                   1                       # What write queue length does an incoming req see (Count)
system.far_mem_ctrl.wrQLenPdf::19                   1                       # What write queue length does an incoming req see (Count)
system.far_mem_ctrl.wrQLenPdf::20                   1                       # What write queue length does an incoming req see (Count)
system.far_mem_ctrl.wrQLenPdf::21                   1                       # What write queue length does an incoming req see (Count)
system.far_mem_ctrl.wrQLenPdf::22                   1                       # What write queue length does an incoming req see (Count)
system.far_mem_ctrl.wrQLenPdf::23                   1                       # What write queue length does an incoming req see (Count)
system.far_mem_ctrl.wrQLenPdf::24                   1                       # What write queue length does an incoming req see (Count)
system.far_mem_ctrl.wrQLenPdf::25                   1                       # What write queue length does an incoming req see (Count)
system.far_mem_ctrl.wrQLenPdf::26                   1                       # What write queue length does an incoming req see (Count)
system.far_mem_ctrl.wrQLenPdf::27                   1                       # What write queue length does an incoming req see (Count)
system.far_mem_ctrl.wrQLenPdf::28                   1                       # What write queue length does an incoming req see (Count)
system.far_mem_ctrl.wrQLenPdf::29                   1                       # What write queue length does an incoming req see (Count)
system.far_mem_ctrl.wrQLenPdf::30                   1                       # What write queue length does an incoming req see (Count)
system.far_mem_ctrl.wrQLenPdf::31                   1                       # What write queue length does an incoming req see (Count)
system.far_mem_ctrl.wrQLenPdf::32                   1                       # What write queue length does an incoming req see (Count)
system.far_mem_ctrl.wrQLenPdf::33                   1                       # What write queue length does an incoming req see (Count)
system.far_mem_ctrl.wrQLenPdf::34                   1                       # What write queue length does an incoming req see (Count)
system.far_mem_ctrl.wrQLenPdf::35                   1                       # What write queue length does an incoming req see (Count)
system.far_mem_ctrl.wrQLenPdf::36                   1                       # What write queue length does an incoming req see (Count)
system.far_mem_ctrl.wrQLenPdf::37                   1                       # What write queue length does an incoming req see (Count)
system.far_mem_ctrl.wrQLenPdf::38                   1                       # What write queue length does an incoming req see (Count)
system.far_mem_ctrl.wrQLenPdf::39                   1                       # What write queue length does an incoming req see (Count)
system.far_mem_ctrl.wrQLenPdf::40                   1                       # What write queue length does an incoming req see (Count)
system.far_mem_ctrl.wrQLenPdf::41                   1                       # What write queue length does an incoming req see (Count)
system.far_mem_ctrl.wrQLenPdf::42                   1                       # What write queue length does an incoming req see (Count)
system.far_mem_ctrl.wrQLenPdf::43                   1                       # What write queue length does an incoming req see (Count)
system.far_mem_ctrl.wrQLenPdf::44                   1                       # What write queue length does an incoming req see (Count)
system.far_mem_ctrl.wrQLenPdf::45                   1                       # What write queue length does an incoming req see (Count)
system.far_mem_ctrl.wrQLenPdf::46                   1                       # What write queue length does an incoming req see (Count)
system.far_mem_ctrl.wrQLenPdf::47                8821                       # What write queue length does an incoming req see (Count)
system.far_mem_ctrl.wrQLenPdf::48               13971                       # What write queue length does an incoming req see (Count)
system.far_mem_ctrl.wrQLenPdf::49               14877                       # What write queue length does an incoming req see (Count)
system.far_mem_ctrl.wrQLenPdf::50               15097                       # What write queue length does an incoming req see (Count)
system.far_mem_ctrl.wrQLenPdf::51               14869                       # What write queue length does an incoming req see (Count)
system.far_mem_ctrl.wrQLenPdf::52               14825                       # What write queue length does an incoming req see (Count)
system.far_mem_ctrl.wrQLenPdf::53               14996                       # What write queue length does an incoming req see (Count)
system.far_mem_ctrl.wrQLenPdf::54               14931                       # What write queue length does an incoming req see (Count)
system.far_mem_ctrl.wrQLenPdf::55               15098                       # What write queue length does an incoming req see (Count)
system.far_mem_ctrl.wrQLenPdf::56               15125                       # What write queue length does an incoming req see (Count)
system.far_mem_ctrl.wrQLenPdf::57               15282                       # What write queue length does an incoming req see (Count)
system.far_mem_ctrl.wrQLenPdf::58               15449                       # What write queue length does an incoming req see (Count)
system.far_mem_ctrl.wrQLenPdf::59               15207                       # What write queue length does an incoming req see (Count)
system.far_mem_ctrl.wrQLenPdf::60               15107                       # What write queue length does an incoming req see (Count)
system.far_mem_ctrl.wrQLenPdf::61               15279                       # What write queue length does an incoming req see (Count)
system.far_mem_ctrl.wrQLenPdf::62               15108                       # What write queue length does an incoming req see (Count)
system.far_mem_ctrl.wrQLenPdf::63               14977                       # What write queue length does an incoming req see (Count)
system.far_mem_ctrl.wrQLenPdf::64               15001                       # What write queue length does an incoming req see (Count)
system.far_mem_ctrl.wrQLenPdf::65               10056                       # What write queue length does an incoming req see (Count)
system.far_mem_ctrl.wrQLenPdf::66                7998                       # What write queue length does an incoming req see (Count)
system.far_mem_ctrl.wrQLenPdf::67                7408                       # What write queue length does an incoming req see (Count)
system.far_mem_ctrl.wrQLenPdf::68                6819                       # What write queue length does an incoming req see (Count)
system.far_mem_ctrl.wrQLenPdf::69                6554                       # What write queue length does an incoming req see (Count)
system.far_mem_ctrl.wrQLenPdf::70                6396                       # What write queue length does an incoming req see (Count)
system.far_mem_ctrl.wrQLenPdf::71                5985                       # What write queue length does an incoming req see (Count)
system.far_mem_ctrl.wrQLenPdf::72                6145                       # What write queue length does an incoming req see (Count)
system.far_mem_ctrl.wrQLenPdf::73                5840                       # What write queue length does an incoming req see (Count)
system.far_mem_ctrl.wrQLenPdf::74                5853                       # What write queue length does an incoming req see (Count)
system.far_mem_ctrl.wrQLenPdf::75                5597                       # What write queue length does an incoming req see (Count)
system.far_mem_ctrl.wrQLenPdf::76                5686                       # What write queue length does an incoming req see (Count)
system.far_mem_ctrl.wrQLenPdf::77                5478                       # What write queue length does an incoming req see (Count)
system.far_mem_ctrl.wrQLenPdf::78                5591                       # What write queue length does an incoming req see (Count)
system.far_mem_ctrl.wrQLenPdf::79                5327                       # What write queue length does an incoming req see (Count)
system.far_mem_ctrl.wrQLenPdf::80                5325                       # What write queue length does an incoming req see (Count)
system.far_mem_ctrl.wrQLenPdf::81                5197                       # What write queue length does an incoming req see (Count)
system.far_mem_ctrl.wrQLenPdf::82                5130                       # What write queue length does an incoming req see (Count)
system.far_mem_ctrl.wrQLenPdf::83                5050                       # What write queue length does an incoming req see (Count)
system.far_mem_ctrl.wrQLenPdf::84                5058                       # What write queue length does an incoming req see (Count)
system.far_mem_ctrl.wrQLenPdf::85                4916                       # What write queue length does an incoming req see (Count)
system.far_mem_ctrl.wrQLenPdf::86                4846                       # What write queue length does an incoming req see (Count)
system.far_mem_ctrl.wrQLenPdf::87                4619                       # What write queue length does an incoming req see (Count)
system.far_mem_ctrl.wrQLenPdf::88                4681                       # What write queue length does an incoming req see (Count)
system.far_mem_ctrl.wrQLenPdf::89                4554                       # What write queue length does an incoming req see (Count)
system.far_mem_ctrl.wrQLenPdf::90                4642                       # What write queue length does an incoming req see (Count)
system.far_mem_ctrl.wrQLenPdf::91                4425                       # What write queue length does an incoming req see (Count)
system.far_mem_ctrl.wrQLenPdf::92                4399                       # What write queue length does an incoming req see (Count)
system.far_mem_ctrl.wrQLenPdf::93                4382                       # What write queue length does an incoming req see (Count)
system.far_mem_ctrl.wrQLenPdf::94                4260                       # What write queue length does an incoming req see (Count)
system.far_mem_ctrl.wrQLenPdf::95                4194                       # What write queue length does an incoming req see (Count)
system.far_mem_ctrl.wrQLenPdf::96                4113                       # What write queue length does an incoming req see (Count)
system.far_mem_ctrl.wrQLenPdf::97                4145                       # What write queue length does an incoming req see (Count)
system.far_mem_ctrl.wrQLenPdf::98                3955                       # What write queue length does an incoming req see (Count)
system.far_mem_ctrl.wrQLenPdf::99                3909                       # What write queue length does an incoming req see (Count)
system.far_mem_ctrl.wrQLenPdf::100               3902                       # What write queue length does an incoming req see (Count)
system.far_mem_ctrl.wrQLenPdf::101               3921                       # What write queue length does an incoming req see (Count)
system.far_mem_ctrl.wrQLenPdf::102               3825                       # What write queue length does an incoming req see (Count)
system.far_mem_ctrl.wrQLenPdf::103               3735                       # What write queue length does an incoming req see (Count)
system.far_mem_ctrl.wrQLenPdf::104               3702                       # What write queue length does an incoming req see (Count)
system.far_mem_ctrl.wrQLenPdf::105               3552                       # What write queue length does an incoming req see (Count)
system.far_mem_ctrl.wrQLenPdf::106               3599                       # What write queue length does an incoming req see (Count)
system.far_mem_ctrl.wrQLenPdf::107               3526                       # What write queue length does an incoming req see (Count)
system.far_mem_ctrl.wrQLenPdf::108               3444                       # What write queue length does an incoming req see (Count)
system.far_mem_ctrl.wrQLenPdf::109               3428                       # What write queue length does an incoming req see (Count)
system.far_mem_ctrl.wrQLenPdf::110               3143                       # What write queue length does an incoming req see (Count)
system.far_mem_ctrl.wrQLenPdf::111               2984                       # What write queue length does an incoming req see (Count)
system.far_mem_ctrl.wrQLenPdf::112               3010                       # What write queue length does an incoming req see (Count)
system.far_mem_ctrl.wrQLenPdf::113               2870                       # What write queue length does an incoming req see (Count)
system.far_mem_ctrl.wrQLenPdf::114               2739                       # What write queue length does an incoming req see (Count)
system.far_mem_ctrl.wrQLenPdf::115               2626                       # What write queue length does an incoming req see (Count)
system.far_mem_ctrl.wrQLenPdf::116               2539                       # What write queue length does an incoming req see (Count)
system.far_mem_ctrl.wrQLenPdf::117               2521                       # What write queue length does an incoming req see (Count)
system.far_mem_ctrl.wrQLenPdf::118               2450                       # What write queue length does an incoming req see (Count)
system.far_mem_ctrl.wrQLenPdf::119               2309                       # What write queue length does an incoming req see (Count)
system.far_mem_ctrl.wrQLenPdf::120               2350                       # What write queue length does an incoming req see (Count)
system.far_mem_ctrl.wrQLenPdf::121               2300                       # What write queue length does an incoming req see (Count)
system.far_mem_ctrl.wrQLenPdf::122               2235                       # What write queue length does an incoming req see (Count)
system.far_mem_ctrl.wrQLenPdf::123               2051                       # What write queue length does an incoming req see (Count)
system.far_mem_ctrl.wrQLenPdf::124               2071                       # What write queue length does an incoming req see (Count)
system.far_mem_ctrl.wrQLenPdf::125               2225                       # What write queue length does an incoming req see (Count)
system.far_mem_ctrl.wrQLenPdf::126               2772                       # What write queue length does an incoming req see (Count)
system.far_mem_ctrl.wrQLenPdf::127              47395                       # What write queue length does an incoming req see (Count)
system.far_mem_ctrl.rdPerTurnAround::samples         8821                       # Reads before turning the bus around for writes (Count)
system.far_mem_ctrl.rdPerTurnAround::0           8821    100.00%    100.00% # Reads before turning the bus around for writes (Count)
system.far_mem_ctrl.rdPerTurnAround::total         8821                       # Reads before turning the bus around for writes (Count)
system.far_mem_ctrl.wrPerTurnAround::samples         8820                       # Writes before turning the bus around for reads (Count)
system.far_mem_ctrl.wrPerTurnAround::0           8820    100.00%    100.00% # Writes before turning the bus around for reads (Count)
system.far_mem_ctrl.wrPerTurnAround::total         8820                       # Writes before turning the bus around for reads (Count)
system.far_mem_ctrl.bytesReadWrQ                30912                       # Total number of bytes read from write queue (Byte)
system.far_mem_ctrl.bytesReadSys             56217472                       # Total read bytes from the system interface side (Byte)
system.far_mem_ctrl.bytesWrittenSys          84748224                       # Total written bytes from the system interface side (Byte)
system.far_mem_ctrl.avgRdBWSys           5621735540.52048874                       # Average system read bandwidth in Byte/s ((Byte/Second))
system.far_mem_ctrl.avgWrBWSys           8474804823.25479603                       # Average system write bandwidth in Byte/s ((Byte/Second))
system.far_mem_ctrl.totGap                 9999954924                       # Total gap between requests (Tick)
system.far_mem_ctrl.avgGap                    4540.09                       # Average gap between requests ((Tick/Count))
system.far_mem_ctrl.requestorReadBytes::writebacks     56184768                       # Per-requestor bytes read from memory (Byte)
system.far_mem_ctrl.requestorWriteBytes::writebacks     37104896                       # Per-requestor bytes write to memory (Byte)
system.far_mem_ctrl.requestorReadRate::writebacks 5618465147.303283691406                       # Per-requestor bytes read from memory rate ((Byte/Second))
system.far_mem_ctrl.requestorWriteRate::writebacks 3710481904.460529804230                       # Per-requestor bytes write to memory rate ((Byte/Second))
system.far_mem_ctrl.requestorReadAccesses::writebacks       878398                       # Per-requestor read serviced memory accesses (Count)
system.far_mem_ctrl.requestorWriteAccesses::writebacks      1324191                       # Per-requestor write serviced memory accesses (Count)
system.far_mem_ctrl.requestorReadTotalLat::writebacks 157056403618                       # Per-requestor read total memory access latency (Tick)
system.far_mem_ctrl.requestorWriteTotalLat::writebacks 648026548518                       # Per-requestor write total memory access latency (Tick)
system.far_mem_ctrl.requestorReadAvgLat::writebacks    178798.68                       # Per-requestor read average memory access latency ((Tick/Count))
system.far_mem_ctrl.requestorWriteAvgLat::writebacks    489375.44                       # Per-requestor write average memory access latency ((Tick/Count))
system.far_mem_ctrl.dram.bytesRead::writebacks     56215680                       # Number of bytes read from this memory (Byte)
system.far_mem_ctrl.dram.bytesRead::total     56215680                       # Number of bytes read from this memory (Byte)
system.far_mem_ctrl.dram.bytesWritten::writebacks     84748224                       # Number of bytes written to this memory (Byte)
system.far_mem_ctrl.dram.bytesWritten::total     84748224                       # Number of bytes written to this memory (Byte)
system.far_mem_ctrl.dram.numReads::writebacks       878370                       # Number of read requests responded to by this memory (Count)
system.far_mem_ctrl.dram.numReads::total       878370                       # Number of read requests responded to by this memory (Count)
system.far_mem_ctrl.dram.numWrites::writebacks      1324191                       # Number of write requests responded to by this memory (Count)
system.far_mem_ctrl.dram.numWrites::total      1324191                       # Number of write requests responded to by this memory (Count)
system.far_mem_ctrl.dram.bwRead::writebacks   5621556341                       # Total read bandwidth from this memory ((Byte/Second))
system.far_mem_ctrl.dram.bwRead::total     5621556341                       # Total read bandwidth from this memory ((Byte/Second))
system.far_mem_ctrl.dram.bwWrite::writebacks   8474804823                       # Write bandwidth from this memory ((Byte/Second))
system.far_mem_ctrl.dram.bwWrite::total    8474804823                       # Write bandwidth from this memory ((Byte/Second))
system.far_mem_ctrl.dram.bwTotal::writebacks  14096361164                       # Total bandwidth to/from this memory ((Byte/Second))
system.far_mem_ctrl.dram.bwTotal::total   14096361164                       # Total bandwidth to/from this memory ((Byte/Second))
system.far_mem_ctrl.dram.readBursts            877887                       # Number of DRAM read bursts (Count)
system.far_mem_ctrl.dram.writeBursts           579764                       # Number of DRAM write bursts (Count)
system.far_mem_ctrl.dram.perBankRdBursts::0        27184                       # Per bank write bursts (Count)
system.far_mem_ctrl.dram.perBankRdBursts::1        27454                       # Per bank write bursts (Count)
system.far_mem_ctrl.dram.perBankRdBursts::2        27492                       # Per bank write bursts (Count)
system.far_mem_ctrl.dram.perBankRdBursts::3        27141                       # Per bank write bursts (Count)
system.far_mem_ctrl.dram.perBankRdBursts::4        27856                       # Per bank write bursts (Count)
system.far_mem_ctrl.dram.perBankRdBursts::5        27334                       # Per bank write bursts (Count)
system.far_mem_ctrl.dram.perBankRdBursts::6        27359                       # Per bank write bursts (Count)
system.far_mem_ctrl.dram.perBankRdBursts::7        27276                       # Per bank write bursts (Count)
system.far_mem_ctrl.dram.perBankRdBursts::8        27340                       # Per bank write bursts (Count)
system.far_mem_ctrl.dram.perBankRdBursts::9        27399                       # Per bank write bursts (Count)
system.far_mem_ctrl.dram.perBankRdBursts::10        27573                       # Per bank write bursts (Count)
system.far_mem_ctrl.dram.perBankRdBursts::11        27525                       # Per bank write bursts (Count)
system.far_mem_ctrl.dram.perBankRdBursts::12        27724                       # Per bank write bursts (Count)
system.far_mem_ctrl.dram.perBankRdBursts::13        27452                       # Per bank write bursts (Count)
system.far_mem_ctrl.dram.perBankRdBursts::14        27606                       # Per bank write bursts (Count)
system.far_mem_ctrl.dram.perBankRdBursts::15        27437                       # Per bank write bursts (Count)
system.far_mem_ctrl.dram.perBankRdBursts::16        27430                       # Per bank write bursts (Count)
system.far_mem_ctrl.dram.perBankRdBursts::17        27515                       # Per bank write bursts (Count)
system.far_mem_ctrl.dram.perBankRdBursts::18        27387                       # Per bank write bursts (Count)
system.far_mem_ctrl.dram.perBankRdBursts::19        27570                       # Per bank write bursts (Count)
system.far_mem_ctrl.dram.perBankRdBursts::20        27476                       # Per bank write bursts (Count)
system.far_mem_ctrl.dram.perBankRdBursts::21        27414                       # Per bank write bursts (Count)
system.far_mem_ctrl.dram.perBankRdBursts::22        27444                       # Per bank write bursts (Count)
system.far_mem_ctrl.dram.perBankRdBursts::23        27485                       # Per bank write bursts (Count)
system.far_mem_ctrl.dram.perBankRdBursts::24        27122                       # Per bank write bursts (Count)
system.far_mem_ctrl.dram.perBankRdBursts::25        27184                       # Per bank write bursts (Count)
system.far_mem_ctrl.dram.perBankRdBursts::26        27137                       # Per bank write bursts (Count)
system.far_mem_ctrl.dram.perBankRdBursts::27        27545                       # Per bank write bursts (Count)
system.far_mem_ctrl.dram.perBankRdBursts::28        27599                       # Per bank write bursts (Count)
system.far_mem_ctrl.dram.perBankRdBursts::29        27456                       # Per bank write bursts (Count)
system.far_mem_ctrl.dram.perBankRdBursts::30        27388                       # Per bank write bursts (Count)
system.far_mem_ctrl.dram.perBankRdBursts::31        27583                       # Per bank write bursts (Count)
system.far_mem_ctrl.dram.perBankWrBursts::0        25532                       # Per bank write bursts (Count)
system.far_mem_ctrl.dram.perBankWrBursts::1        17893                       # Per bank write bursts (Count)
system.far_mem_ctrl.dram.perBankWrBursts::2        18047                       # Per bank write bursts (Count)
system.far_mem_ctrl.dram.perBankWrBursts::3        17580                       # Per bank write bursts (Count)
system.far_mem_ctrl.dram.perBankWrBursts::4        18078                       # Per bank write bursts (Count)
system.far_mem_ctrl.dram.perBankWrBursts::5        17855                       # Per bank write bursts (Count)
system.far_mem_ctrl.dram.perBankWrBursts::6        17760                       # Per bank write bursts (Count)
system.far_mem_ctrl.dram.perBankWrBursts::7        17726                       # Per bank write bursts (Count)
system.far_mem_ctrl.dram.perBankWrBursts::8        17833                       # Per bank write bursts (Count)
system.far_mem_ctrl.dram.perBankWrBursts::9        17749                       # Per bank write bursts (Count)
system.far_mem_ctrl.dram.perBankWrBursts::10        17921                       # Per bank write bursts (Count)
system.far_mem_ctrl.dram.perBankWrBursts::11        18000                       # Per bank write bursts (Count)
system.far_mem_ctrl.dram.perBankWrBursts::12        18242                       # Per bank write bursts (Count)
system.far_mem_ctrl.dram.perBankWrBursts::13        17729                       # Per bank write bursts (Count)
system.far_mem_ctrl.dram.perBankWrBursts::14        17926                       # Per bank write bursts (Count)
system.far_mem_ctrl.dram.perBankWrBursts::15        17953                       # Per bank write bursts (Count)
system.far_mem_ctrl.dram.perBankWrBursts::16        17970                       # Per bank write bursts (Count)
system.far_mem_ctrl.dram.perBankWrBursts::17        17807                       # Per bank write bursts (Count)
system.far_mem_ctrl.dram.perBankWrBursts::18        17884                       # Per bank write bursts (Count)
system.far_mem_ctrl.dram.perBankWrBursts::19        17825                       # Per bank write bursts (Count)
system.far_mem_ctrl.dram.perBankWrBursts::20        17861                       # Per bank write bursts (Count)
system.far_mem_ctrl.dram.perBankWrBursts::21        17786                       # Per bank write bursts (Count)
system.far_mem_ctrl.dram.perBankWrBursts::22        18025                       # Per bank write bursts (Count)
system.far_mem_ctrl.dram.perBankWrBursts::23        17998                       # Per bank write bursts (Count)
system.far_mem_ctrl.dram.perBankWrBursts::24        17802                       # Per bank write bursts (Count)
system.far_mem_ctrl.dram.perBankWrBursts::25        17683                       # Per bank write bursts (Count)
system.far_mem_ctrl.dram.perBankWrBursts::26        17633                       # Per bank write bursts (Count)
system.far_mem_ctrl.dram.perBankWrBursts::27        18019                       # Per bank write bursts (Count)
system.far_mem_ctrl.dram.perBankWrBursts::28        17975                       # Per bank write bursts (Count)
system.far_mem_ctrl.dram.perBankWrBursts::29        17968                       # Per bank write bursts (Count)
system.far_mem_ctrl.dram.perBankWrBursts::30        17700                       # Per bank write bursts (Count)
system.far_mem_ctrl.dram.perBankWrBursts::31        18004                       # Per bank write bursts (Count)
system.far_mem_ctrl.dram.totQLat         141700404214                       # Total ticks spent queuing (Tick)
system.far_mem_ctrl.dram.totBusLat         2925119484                       # Total ticks spent in databus transfers (Tick)
system.far_mem_ctrl.dram.totMemAccLat    157056403618                       # Total ticks spent from burst creation until serviced by the DRAM (Tick)
system.far_mem_ctrl.dram.avgQLat            161410.76                       # Average queueing delay per DRAM burst ((Tick/Count))
system.far_mem_ctrl.dram.avgBusLat            3332.00                       # Average bus latency per DRAM burst ((Tick/Count))
system.far_mem_ctrl.dram.avgMemAccLat       178902.76                       # Average memory access latency per DRAM burst ((Tick/Count))
system.far_mem_ctrl.dram.readRowHits              718                       # Number of row buffer hits during reads (Count)
system.far_mem_ctrl.dram.writeRowHits            4864                       # Number of row buffer hits during writes (Count)
system.far_mem_ctrl.dram.readRowHitRate          0.08                       # Row buffer hit rate for reads (Ratio)
system.far_mem_ctrl.dram.writeRowHitRate         0.84                       # Row buffer hit rate for writes (Ratio)
system.far_mem_ctrl.dram.bytesPerActivate::samples      1452053                       # Bytes accessed per row activation (Byte)
system.far_mem_ctrl.dram.bytesPerActivate::mean    64.246030                       # Bytes accessed per row activation (Byte)
system.far_mem_ctrl.dram.bytesPerActivate::gmean    64.120407                       # Bytes accessed per row activation (Byte)
system.far_mem_ctrl.dram.bytesPerActivate::stdev     9.184234                       # Bytes accessed per row activation (Byte)
system.far_mem_ctrl.dram.bytesPerActivate::0-127      1448788     99.78%     99.78% # Bytes accessed per row activation (Byte)
system.far_mem_ctrl.dram.bytesPerActivate::128-255         2942      0.20%     99.98% # Bytes accessed per row activation (Byte)
system.far_mem_ctrl.dram.bytesPerActivate::256-383          100      0.01%     99.98% # Bytes accessed per row activation (Byte)
system.far_mem_ctrl.dram.bytesPerActivate::384-511           50      0.00%     99.99% # Bytes accessed per row activation (Byte)
system.far_mem_ctrl.dram.bytesPerActivate::512-639           38      0.00%     99.99% # Bytes accessed per row activation (Byte)
system.far_mem_ctrl.dram.bytesPerActivate::640-767           29      0.00%     99.99% # Bytes accessed per row activation (Byte)
system.far_mem_ctrl.dram.bytesPerActivate::768-895           37      0.00%    100.00% # Bytes accessed per row activation (Byte)
system.far_mem_ctrl.dram.bytesPerActivate::896-1023           22      0.00%    100.00% # Bytes accessed per row activation (Byte)
system.far_mem_ctrl.dram.bytesPerActivate::1024-1151           47      0.00%    100.00% # Bytes accessed per row activation (Byte)
system.far_mem_ctrl.dram.bytesPerActivate::total      1452053                       # Bytes accessed per row activation (Byte)
system.far_mem_ctrl.dram.bytesRead           56184768                       # Total bytes read (Byte)
system.far_mem_ctrl.dram.bytesWritten        37104896                       # Total bytes written (Byte)
system.far_mem_ctrl.dram.avgRdBW          5618.465147                       # Average DRAM read bandwidth in MiBytes/s ((Byte/Second))
system.far_mem_ctrl.dram.avgWrBW          3710.481904                       # Average DRAM write bandwidth in MiBytes/s ((Byte/Second))
system.far_mem_ctrl.dram.peakBW              19207.00                       # Theoretical peak bandwidth in MiByte/s ((Byte/Second))
system.far_mem_ctrl.dram.busUtil                48.57                       # Data bus utilization in percentage (Ratio)
system.far_mem_ctrl.dram.busUtilRead            29.25                       # Data bus utilization in percentage for reads (Ratio)
system.far_mem_ctrl.dram.busUtilWrite           19.32                       # Data bus utilization in percentage for writes (Ratio)
system.far_mem_ctrl.dram.pageHitRate             0.38                       # Row buffer hit rate, read and write combined (Ratio)
system.far_mem_ctrl.dram.power_state.pwrStateResidencyTicks::UNDEFINED  10000020740                       # Cumulative time (in ticks) in various power states (Tick)
system.far_mem_ctrl.dram.rank0.actEnergy 2272968288.864004                       # Energy for activate commands per rank (pJ) (Joule)
system.far_mem_ctrl.dram.rank0.preEnergy 3021824150.654401                       # Energy for precharge commands per rank (pJ) (Joule)
system.far_mem_ctrl.dram.rank0.readEnergy 1847212435.353600                       # Energy for read commands per rank (pJ) (Joule)
system.far_mem_ctrl.dram.rank0.writeEnergy 1104321294.720001                       # Energy for write commands per rank (pJ) (Joule)
system.far_mem_ctrl.dram.rank0.refreshEnergy 1778824873.324749                       # Energy for refresh commands per rank (pJ) (Joule)
system.far_mem_ctrl.dram.rank0.actBackEnergy 8197637976.662394                       # Energy for active background per rank (pJ) (Joule)
system.far_mem_ctrl.dram.rank0.preBackEnergy 229263553.881601                       # Energy for precharge background per rank (pJ) (Joule)
system.far_mem_ctrl.dram.rank0.actPowerDownEnergy            0                       # Energy for active power-down per rank (pJ) (Joule)
system.far_mem_ctrl.dram.rank0.prePowerDownEnergy            0                       # Energy for precharge power-down per rank (pJ) (Joule)
system.far_mem_ctrl.dram.rank0.selfRefreshEnergy            0                       # Energy for self refresh per rank (pJ) (Joule)
system.far_mem_ctrl.dram.rank0.totalEnergy 18452052573.460789                       # Total energy per rank (pJ) (Joule)
system.far_mem_ctrl.dram.rank0.averagePower  1845.201430                       # Core power per rank (mW) (Watt)
system.far_mem_ctrl.dram.rank0.totalIdleTime            0                       # Total Idle time Per DRAM Rank (Tick)
system.far_mem_ctrl.dram.rank0.pwrStateTime::IDLE    315380290                       # Time in different power states (Tick)
system.far_mem_ctrl.dram.rank0.pwrStateTime::REF    449400000                       # Time in different power states (Tick)
system.far_mem_ctrl.dram.rank0.pwrStateTime::SREF            0                       # Time in different power states (Tick)
system.far_mem_ctrl.dram.rank0.pwrStateTime::PRE_PDN            0                       # Time in different power states (Tick)
system.far_mem_ctrl.dram.rank0.pwrStateTime::ACT   9235240450                       # Time in different power states (Tick)
system.far_mem_ctrl.dram.rank0.pwrStateTime::ACT_PDN            0                       # Time in different power states (Tick)
system.far_mem_ctrl.dram.rank1.actEnergy 2255674809.024000                       # Energy for activate commands per rank (pJ) (Joule)
system.far_mem_ctrl.dram.rank1.preEnergy 2998828544.577600                       # Energy for precharge commands per rank (pJ) (Joule)
system.far_mem_ctrl.dram.rank1.readEnergy 1845458401.247998                       # Energy for read commands per rank (pJ) (Joule)
system.far_mem_ctrl.dram.rank1.writeEnergy 1074689312.256001                       # Energy for write commands per rank (pJ) (Joule)
system.far_mem_ctrl.dram.rank1.refreshEnergy 1778824873.324749                       # Energy for refresh commands per rank (pJ) (Joule)
system.far_mem_ctrl.dram.rank1.actBackEnergy 8195272787.116796                       # Energy for active background per rank (pJ) (Joule)
system.far_mem_ctrl.dram.rank1.preBackEnergy 231080874.662401                       # Energy for precharge background per rank (pJ) (Joule)
system.far_mem_ctrl.dram.rank1.actPowerDownEnergy            0                       # Energy for active power-down per rank (pJ) (Joule)
system.far_mem_ctrl.dram.rank1.prePowerDownEnergy            0                       # Energy for precharge power-down per rank (pJ) (Joule)
system.far_mem_ctrl.dram.rank1.selfRefreshEnergy            0                       # Energy for self refresh per rank (pJ) (Joule)
system.far_mem_ctrl.dram.rank1.totalEnergy 18379829602.209602                       # Total energy per rank (pJ) (Joule)
system.far_mem_ctrl.dram.rank1.averagePower  1837.979148                       # Core power per rank (mW) (Watt)
system.far_mem_ctrl.dram.rank1.totalIdleTime            0                       # Total Idle time Per DRAM Rank (Tick)
system.far_mem_ctrl.dram.rank1.pwrStateTime::IDLE    318247642                       # Time in different power states (Tick)
system.far_mem_ctrl.dram.rank1.pwrStateTime::REF    449400000                       # Time in different power states (Tick)
system.far_mem_ctrl.dram.rank1.pwrStateTime::SREF            0                       # Time in different power states (Tick)
system.far_mem_ctrl.dram.rank1.pwrStateTime::PRE_PDN            0                       # Time in different power states (Tick)
system.far_mem_ctrl.dram.rank1.pwrStateTime::ACT   9232373098                       # Time in different power states (Tick)
system.far_mem_ctrl.dram.rank1.pwrStateTime::ACT_PDN            0                       # Time in different power states (Tick)
system.far_mem_ctrl.power_state.pwrStateResidencyTicks::UNDEFINED  10000020740                       # Cumulative time (in ticks) in various power states (Tick)
system.generator.numSuppressed                      0                       # Number of suppressed packets to non-memory space (Count)
system.generator.numPackets                   1324419                       # Number of packets generated (Count)
system.generator.numRetries                   1323770                       # Number of retries (Count)
system.generator.retryTicks                9984711546                       # Time spent waiting due to back-pressure (Tick)
system.generator.bytesRead                   56215680                       # Number of bytes read (Byte)
system.generator.bytesWritten                28536000                       # Number of bytes written (Byte)
system.generator.totalReadLatency        1253500842613                       # Total latency of read requests (Tick)
system.generator.totalWriteLatency        12379913110                       # Total latency of write requests (Tick)
system.generator.totalReads                    878370                       # Total num of reads (Count)
system.generator.totalWrites                   445875                       # Total num of writes (Count)
system.generator.avgReadLatency          1427076.109855                       # Avg latency of read requests ((Tick/Count))
system.generator.avgWriteLatency         27765.434505                       # Avg latency of write requests ((Tick/Count))
system.generator.readBW                  5621556340.892149                       # Read bandwidth ((Byte/Second))
system.generator.writeBW                 2853594081.645875                       # Write bandwidth ((Byte/Second))
system.generator.power_state.pwrStateResidencyTicks::UNDEFINED  10000020740                       # Cumulative time (in ticks) in various power states (Tick)
system.loc_mem_ctrl.avgPriority_writebacks::samples   2648417.00                       # Average QoS priority value for accepted requests (Count)
system.loc_mem_ctrl.priorityMinLatency   0.000000044812                       # per QoS priority minimum request to response latency (Second)
system.loc_mem_ctrl.priorityMaxLatency   0.000013711738                       # per QoS priority maximum request to response latency (Second)
system.loc_mem_ctrl.numReadWriteTurnArounds            0                       # Number of turnarounds from READ to WRITE (Count)
system.loc_mem_ctrl.numWriteReadTurnArounds            0                       # Number of turnarounds from WRITE to READ (Count)
system.loc_mem_ctrl.numStayReadState          2658117                       # Number of times bus staying in READ state (Count)
system.loc_mem_ctrl.numStayWriteState               0                       # Number of times bus staying in WRITE state (Count)
system.loc_mem_ctrl.readReqs                  1324261                       # Number of read requests accepted (Count)
system.loc_mem_ctrl.writeReqs                 1324163                       # Number of write requests accepted (Count)
system.loc_mem_ctrl.readBursts                1324261                       # Number of controller read bursts, including those serviced by the write queue (Count)
system.loc_mem_ctrl.writeBursts               1324163                       # Number of controller write bursts, including those merged in the write queue (Count)
system.loc_mem_ctrl.servicedByWrQ                   6                       # Number of controller read bursts serviced by the write queue (Count)
system.loc_mem_ctrl.mergedWrBursts                  1                       # Number of controller write bursts merged with an existing one (Count)
system.loc_mem_ctrl.avgRdQLen                   61.15                       # Average read queue length when enqueuing ((Count/Tick))
system.loc_mem_ctrl.avgWrQLen                  121.26                       # Average write queue length when enqueuing ((Count/Tick))
system.loc_mem_ctrl.numRdRetry                2686261                       # Number of times read queue was full causing retry (Count)
system.loc_mem_ctrl.numWrRetry                2545210                       # Number of times write queue was full causing retry (Count)
system.loc_mem_ctrl.readPktSize::0                  0                       # Read request sizes (log2) (Count)
system.loc_mem_ctrl.readPktSize::1                  0                       # Read request sizes (log2) (Count)
system.loc_mem_ctrl.readPktSize::2                  0                       # Read request sizes (log2) (Count)
system.loc_mem_ctrl.readPktSize::3                  0                       # Read request sizes (log2) (Count)
system.loc_mem_ctrl.readPktSize::4                  0                       # Read request sizes (log2) (Count)
system.loc_mem_ctrl.readPktSize::5                  0                       # Read request sizes (log2) (Count)
system.loc_mem_ctrl.readPktSize::6            1324261                       # Read request sizes (log2) (Count)
system.loc_mem_ctrl.writePktSize::0                 0                       # Write request sizes (log2) (Count)
system.loc_mem_ctrl.writePktSize::1                 0                       # Write request sizes (log2) (Count)
system.loc_mem_ctrl.writePktSize::2                 0                       # Write request sizes (log2) (Count)
system.loc_mem_ctrl.writePktSize::3                 0                       # Write request sizes (log2) (Count)
system.loc_mem_ctrl.writePktSize::4                 0                       # Write request sizes (log2) (Count)
system.loc_mem_ctrl.writePktSize::5                 0                       # Write request sizes (log2) (Count)
system.loc_mem_ctrl.writePktSize::6           1324163                       # Write request sizes (log2) (Count)
system.loc_mem_ctrl.rdQLenPdf::0                   19                       # What read queue length does an incoming req see (Count)
system.loc_mem_ctrl.rdQLenPdf::1                 2261                       # What read queue length does an incoming req see (Count)
system.loc_mem_ctrl.rdQLenPdf::2                 3374                       # What read queue length does an incoming req see (Count)
system.loc_mem_ctrl.rdQLenPdf::3                 3919                       # What read queue length does an incoming req see (Count)
system.loc_mem_ctrl.rdQLenPdf::4                 4157                       # What read queue length does an incoming req see (Count)
system.loc_mem_ctrl.rdQLenPdf::5                 4226                       # What read queue length does an incoming req see (Count)
system.loc_mem_ctrl.rdQLenPdf::6                 4238                       # What read queue length does an incoming req see (Count)
system.loc_mem_ctrl.rdQLenPdf::7                 4205                       # What read queue length does an incoming req see (Count)
system.loc_mem_ctrl.rdQLenPdf::8                 4239                       # What read queue length does an incoming req see (Count)
system.loc_mem_ctrl.rdQLenPdf::9                 4445                       # What read queue length does an incoming req see (Count)
system.loc_mem_ctrl.rdQLenPdf::10                8147                       # What read queue length does an incoming req see (Count)
system.loc_mem_ctrl.rdQLenPdf::11                3930                       # What read queue length does an incoming req see (Count)
system.loc_mem_ctrl.rdQLenPdf::12                3930                       # What read queue length does an incoming req see (Count)
system.loc_mem_ctrl.rdQLenPdf::13                3930                       # What read queue length does an incoming req see (Count)
system.loc_mem_ctrl.rdQLenPdf::14                3930                       # What read queue length does an incoming req see (Count)
system.loc_mem_ctrl.rdQLenPdf::15                3930                       # What read queue length does an incoming req see (Count)
system.loc_mem_ctrl.rdQLenPdf::16                3930                       # What read queue length does an incoming req see (Count)
system.loc_mem_ctrl.rdQLenPdf::17                3930                       # What read queue length does an incoming req see (Count)
system.loc_mem_ctrl.rdQLenPdf::18                3930                       # What read queue length does an incoming req see (Count)
system.loc_mem_ctrl.rdQLenPdf::19                3930                       # What read queue length does an incoming req see (Count)
system.loc_mem_ctrl.rdQLenPdf::20                3930                       # What read queue length does an incoming req see (Count)
system.loc_mem_ctrl.rdQLenPdf::21                3930                       # What read queue length does an incoming req see (Count)
system.loc_mem_ctrl.rdQLenPdf::22                3930                       # What read queue length does an incoming req see (Count)
system.loc_mem_ctrl.rdQLenPdf::23                3930                       # What read queue length does an incoming req see (Count)
system.loc_mem_ctrl.rdQLenPdf::24                3930                       # What read queue length does an incoming req see (Count)
system.loc_mem_ctrl.rdQLenPdf::25                3930                       # What read queue length does an incoming req see (Count)
system.loc_mem_ctrl.rdQLenPdf::26                3930                       # What read queue length does an incoming req see (Count)
system.loc_mem_ctrl.rdQLenPdf::27                3930                       # What read queue length does an incoming req see (Count)
system.loc_mem_ctrl.rdQLenPdf::28                3930                       # What read queue length does an incoming req see (Count)
system.loc_mem_ctrl.rdQLenPdf::29                3930                       # What read queue length does an incoming req see (Count)
system.loc_mem_ctrl.rdQLenPdf::30                3930                       # What read queue length does an incoming req see (Count)
system.loc_mem_ctrl.rdQLenPdf::31                3930                       # What read queue length does an incoming req see (Count)
system.loc_mem_ctrl.rdQLenPdf::32                3930                       # What read queue length does an incoming req see (Count)
system.loc_mem_ctrl.rdQLenPdf::33                3930                       # What read queue length does an incoming req see (Count)
system.loc_mem_ctrl.rdQLenPdf::34                3930                       # What read queue length does an incoming req see (Count)
system.loc_mem_ctrl.rdQLenPdf::35                3930                       # What read queue length does an incoming req see (Count)
system.loc_mem_ctrl.rdQLenPdf::36                3930                       # What read queue length does an incoming req see (Count)
system.loc_mem_ctrl.rdQLenPdf::37                3930                       # What read queue length does an incoming req see (Count)
system.loc_mem_ctrl.rdQLenPdf::38                3930                       # What read queue length does an incoming req see (Count)
system.loc_mem_ctrl.rdQLenPdf::39                3930                       # What read queue length does an incoming req see (Count)
system.loc_mem_ctrl.rdQLenPdf::40                3930                       # What read queue length does an incoming req see (Count)
system.loc_mem_ctrl.rdQLenPdf::41                3930                       # What read queue length does an incoming req see (Count)
system.loc_mem_ctrl.rdQLenPdf::42                3930                       # What read queue length does an incoming req see (Count)
system.loc_mem_ctrl.rdQLenPdf::43                3930                       # What read queue length does an incoming req see (Count)
system.loc_mem_ctrl.rdQLenPdf::44                3931                       # What read queue length does an incoming req see (Count)
system.loc_mem_ctrl.rdQLenPdf::45                3930                       # What read queue length does an incoming req see (Count)
system.loc_mem_ctrl.rdQLenPdf::46                3930                       # What read queue length does an incoming req see (Count)
system.loc_mem_ctrl.rdQLenPdf::47                3931                       # What read queue length does an incoming req see (Count)
system.loc_mem_ctrl.rdQLenPdf::48                3930                       # What read queue length does an incoming req see (Count)
system.loc_mem_ctrl.rdQLenPdf::49                3931                       # What read queue length does an incoming req see (Count)
system.loc_mem_ctrl.rdQLenPdf::50                3930                       # What read queue length does an incoming req see (Count)
system.loc_mem_ctrl.rdQLenPdf::51                3931                       # What read queue length does an incoming req see (Count)
system.loc_mem_ctrl.rdQLenPdf::52                3930                       # What read queue length does an incoming req see (Count)
system.loc_mem_ctrl.rdQLenPdf::53                3930                       # What read queue length does an incoming req see (Count)
system.loc_mem_ctrl.rdQLenPdf::54                3930                       # What read queue length does an incoming req see (Count)
system.loc_mem_ctrl.rdQLenPdf::55                3931                       # What read queue length does an incoming req see (Count)
system.loc_mem_ctrl.rdQLenPdf::56                3930                       # What read queue length does an incoming req see (Count)
system.loc_mem_ctrl.rdQLenPdf::57                3930                       # What read queue length does an incoming req see (Count)
system.loc_mem_ctrl.rdQLenPdf::58                3931                       # What read queue length does an incoming req see (Count)
system.loc_mem_ctrl.rdQLenPdf::59                3930                       # What read queue length does an incoming req see (Count)
system.loc_mem_ctrl.rdQLenPdf::60                3931                       # What read queue length does an incoming req see (Count)
system.loc_mem_ctrl.rdQLenPdf::61                3930                       # What read queue length does an incoming req see (Count)
system.loc_mem_ctrl.rdQLenPdf::62                3931                       # What read queue length does an incoming req see (Count)
system.loc_mem_ctrl.rdQLenPdf::63             1076657                       # What read queue length does an incoming req see (Count)
system.loc_mem_ctrl.wrQLenPdf::0                    1                       # What write queue length does an incoming req see (Count)
system.loc_mem_ctrl.wrQLenPdf::1                    1                       # What write queue length does an incoming req see (Count)
system.loc_mem_ctrl.wrQLenPdf::2                    1                       # What write queue length does an incoming req see (Count)
system.loc_mem_ctrl.wrQLenPdf::3                    1                       # What write queue length does an incoming req see (Count)
system.loc_mem_ctrl.wrQLenPdf::4                    1                       # What write queue length does an incoming req see (Count)
system.loc_mem_ctrl.wrQLenPdf::5                    1                       # What write queue length does an incoming req see (Count)
system.loc_mem_ctrl.wrQLenPdf::6                    1                       # What write queue length does an incoming req see (Count)
system.loc_mem_ctrl.wrQLenPdf::7                    1                       # What write queue length does an incoming req see (Count)
system.loc_mem_ctrl.wrQLenPdf::8                    1                       # What write queue length does an incoming req see (Count)
system.loc_mem_ctrl.wrQLenPdf::9                    1                       # What write queue length does an incoming req see (Count)
system.loc_mem_ctrl.wrQLenPdf::10                   1                       # What write queue length does an incoming req see (Count)
system.loc_mem_ctrl.wrQLenPdf::11                   1                       # What write queue length does an incoming req see (Count)
system.loc_mem_ctrl.wrQLenPdf::12                   1                       # What write queue length does an incoming req see (Count)
system.loc_mem_ctrl.wrQLenPdf::13                   1                       # What write queue length does an incoming req see (Count)
system.loc_mem_ctrl.wrQLenPdf::14                   1                       # What write queue length does an incoming req see (Count)
system.loc_mem_ctrl.wrQLenPdf::15                   1                       # What write queue length does an incoming req see (Count)
system.loc_mem_ctrl.wrQLenPdf::16                   1                       # What write queue length does an incoming req see (Count)
system.loc_mem_ctrl.wrQLenPdf::17                   1                       # What write queue length does an incoming req see (Count)
system.loc_mem_ctrl.wrQLenPdf::18                   1                       # What write queue length does an incoming req see (Count)
system.loc_mem_ctrl.wrQLenPdf::19                   1                       # What write queue length does an incoming req see (Count)
system.loc_mem_ctrl.wrQLenPdf::20                   1                       # What write queue length does an incoming req see (Count)
system.loc_mem_ctrl.wrQLenPdf::21                   1                       # What write queue length does an incoming req see (Count)
system.loc_mem_ctrl.wrQLenPdf::22                   1                       # What write queue length does an incoming req see (Count)
system.loc_mem_ctrl.wrQLenPdf::23                   1                       # What write queue length does an incoming req see (Count)
system.loc_mem_ctrl.wrQLenPdf::24                   1                       # What write queue length does an incoming req see (Count)
system.loc_mem_ctrl.wrQLenPdf::25                   1                       # What write queue length does an incoming req see (Count)
system.loc_mem_ctrl.wrQLenPdf::26                   1                       # What write queue length does an incoming req see (Count)
system.loc_mem_ctrl.wrQLenPdf::27                   1                       # What write queue length does an incoming req see (Count)
system.loc_mem_ctrl.wrQLenPdf::28                   1                       # What write queue length does an incoming req see (Count)
system.loc_mem_ctrl.wrQLenPdf::29                   1                       # What write queue length does an incoming req see (Count)
system.loc_mem_ctrl.wrQLenPdf::30                   1                       # What write queue length does an incoming req see (Count)
system.loc_mem_ctrl.wrQLenPdf::31                   1                       # What write queue length does an incoming req see (Count)
system.loc_mem_ctrl.wrQLenPdf::32                   1                       # What write queue length does an incoming req see (Count)
system.loc_mem_ctrl.wrQLenPdf::33                   1                       # What write queue length does an incoming req see (Count)
system.loc_mem_ctrl.wrQLenPdf::34                   1                       # What write queue length does an incoming req see (Count)
system.loc_mem_ctrl.wrQLenPdf::35                   1                       # What write queue length does an incoming req see (Count)
system.loc_mem_ctrl.wrQLenPdf::36                   1                       # What write queue length does an incoming req see (Count)
system.loc_mem_ctrl.wrQLenPdf::37                   1                       # What write queue length does an incoming req see (Count)
system.loc_mem_ctrl.wrQLenPdf::38                   1                       # What write queue length does an incoming req see (Count)
system.loc_mem_ctrl.wrQLenPdf::39                   1                       # What write queue length does an incoming req see (Count)
system.loc_mem_ctrl.wrQLenPdf::40                   1                       # What write queue length does an incoming req see (Count)
system.loc_mem_ctrl.wrQLenPdf::41                   1                       # What write queue length does an incoming req see (Count)
system.loc_mem_ctrl.wrQLenPdf::42                   1                       # What write queue length does an incoming req see (Count)
system.loc_mem_ctrl.wrQLenPdf::43                   1                       # What write queue length does an incoming req see (Count)
system.loc_mem_ctrl.wrQLenPdf::44                   1                       # What write queue length does an incoming req see (Count)
system.loc_mem_ctrl.wrQLenPdf::45                   1                       # What write queue length does an incoming req see (Count)
system.loc_mem_ctrl.wrQLenPdf::46                   1                       # What write queue length does an incoming req see (Count)
system.loc_mem_ctrl.wrQLenPdf::47                3930                       # What write queue length does an incoming req see (Count)
system.loc_mem_ctrl.wrQLenPdf::48                3930                       # What write queue length does an incoming req see (Count)
system.loc_mem_ctrl.wrQLenPdf::49                3930                       # What write queue length does an incoming req see (Count)
system.loc_mem_ctrl.wrQLenPdf::50                3930                       # What write queue length does an incoming req see (Count)
system.loc_mem_ctrl.wrQLenPdf::51                3930                       # What write queue length does an incoming req see (Count)
system.loc_mem_ctrl.wrQLenPdf::52                3930                       # What write queue length does an incoming req see (Count)
system.loc_mem_ctrl.wrQLenPdf::53                3930                       # What write queue length does an incoming req see (Count)
system.loc_mem_ctrl.wrQLenPdf::54                3930                       # What write queue length does an incoming req see (Count)
system.loc_mem_ctrl.wrQLenPdf::55                3930                       # What write queue length does an incoming req see (Count)
system.loc_mem_ctrl.wrQLenPdf::56                3930                       # What write queue length does an incoming req see (Count)
system.loc_mem_ctrl.wrQLenPdf::57                3930                       # What write queue length does an incoming req see (Count)
system.loc_mem_ctrl.wrQLenPdf::58                3930                       # What write queue length does an incoming req see (Count)
system.loc_mem_ctrl.wrQLenPdf::59                3930                       # What write queue length does an incoming req see (Count)
system.loc_mem_ctrl.wrQLenPdf::60                3930                       # What write queue length does an incoming req see (Count)
system.loc_mem_ctrl.wrQLenPdf::61                3930                       # What write queue length does an incoming req see (Count)
system.loc_mem_ctrl.wrQLenPdf::62                3930                       # What write queue length does an incoming req see (Count)
system.loc_mem_ctrl.wrQLenPdf::63                3930                       # What write queue length does an incoming req see (Count)
system.loc_mem_ctrl.wrQLenPdf::64                3930                       # What write queue length does an incoming req see (Count)
system.loc_mem_ctrl.wrQLenPdf::65                3930                       # What write queue length does an incoming req see (Count)
system.loc_mem_ctrl.wrQLenPdf::66                3930                       # What write queue length does an incoming req see (Count)
system.loc_mem_ctrl.wrQLenPdf::67                3930                       # What write queue length does an incoming req see (Count)
system.loc_mem_ctrl.wrQLenPdf::68                3930                       # What write queue length does an incoming req see (Count)
system.loc_mem_ctrl.wrQLenPdf::69                3930                       # What write queue length does an incoming req see (Count)
system.loc_mem_ctrl.wrQLenPdf::70                3930                       # What write queue length does an incoming req see (Count)
system.loc_mem_ctrl.wrQLenPdf::71                3930                       # What write queue length does an incoming req see (Count)
system.loc_mem_ctrl.wrQLenPdf::72                3930                       # What write queue length does an incoming req see (Count)
system.loc_mem_ctrl.wrQLenPdf::73                3930                       # What write queue length does an incoming req see (Count)
system.loc_mem_ctrl.wrQLenPdf::74                3930                       # What write queue length does an incoming req see (Count)
system.loc_mem_ctrl.wrQLenPdf::75                3930                       # What write queue length does an incoming req see (Count)
system.loc_mem_ctrl.wrQLenPdf::76                3930                       # What write queue length does an incoming req see (Count)
system.loc_mem_ctrl.wrQLenPdf::77                3930                       # What write queue length does an incoming req see (Count)
system.loc_mem_ctrl.wrQLenPdf::78                3930                       # What write queue length does an incoming req see (Count)
system.loc_mem_ctrl.wrQLenPdf::79                3930                       # What write queue length does an incoming req see (Count)
system.loc_mem_ctrl.wrQLenPdf::80                3930                       # What write queue length does an incoming req see (Count)
system.loc_mem_ctrl.wrQLenPdf::81                3930                       # What write queue length does an incoming req see (Count)
system.loc_mem_ctrl.wrQLenPdf::82                3930                       # What write queue length does an incoming req see (Count)
system.loc_mem_ctrl.wrQLenPdf::83                3930                       # What write queue length does an incoming req see (Count)
system.loc_mem_ctrl.wrQLenPdf::84                3930                       # What write queue length does an incoming req see (Count)
system.loc_mem_ctrl.wrQLenPdf::85                3930                       # What write queue length does an incoming req see (Count)
system.loc_mem_ctrl.wrQLenPdf::86                3929                       # What write queue length does an incoming req see (Count)
system.loc_mem_ctrl.wrQLenPdf::87                3929                       # What write queue length does an incoming req see (Count)
system.loc_mem_ctrl.wrQLenPdf::88                3929                       # What write queue length does an incoming req see (Count)
system.loc_mem_ctrl.wrQLenPdf::89                3929                       # What write queue length does an incoming req see (Count)
system.loc_mem_ctrl.wrQLenPdf::90                3929                       # What write queue length does an incoming req see (Count)
system.loc_mem_ctrl.wrQLenPdf::91                3929                       # What write queue length does an incoming req see (Count)
system.loc_mem_ctrl.wrQLenPdf::92                3929                       # What write queue length does an incoming req see (Count)
system.loc_mem_ctrl.wrQLenPdf::93                3929                       # What write queue length does an incoming req see (Count)
system.loc_mem_ctrl.wrQLenPdf::94                3929                       # What write queue length does an incoming req see (Count)
[...]
system.loc_mem_ctrl.dram.perBankWrBursts::24        41079                       # Per bank write bursts (Count)
system.loc_mem_ctrl.dram.perBankWrBursts::25        41189                       # Per bank write bursts (Count)
system.loc_mem_ctrl.dram.perBankWrBursts::26        41147                       # Per bank write bursts (Count)
system.loc_mem_ctrl.dram.perBankWrBursts::27        41609                       # Per bank write bursts (Count)
system.loc_mem_ctrl.dram.perBankWrBursts::28        41641                       # Per bank write bursts (Count)
system.loc_mem_ctrl.dram.perBankWrBursts::29        41377                       # Per bank write bursts (Count)
system.loc_mem_ctrl.dram.perBankWrBursts::30        41256                       # Per bank write bursts (Count)
system.loc_mem_ctrl.dram.perBankWrBursts::31        41479                       # Per bank write bursts (Count)
system.loc_mem_ctrl.dram.totQLat         543374109138                       # Total ticks spent queuing (Tick)
system.loc_mem_ctrl.dram.totBusLat         4412247728                       # Total ticks spent in databus transfers (Tick)
system.loc_mem_ctrl.dram.totMemAccLat    566537085506                       # Total ticks spent from burst creation until serviced by the DRAM (Tick)
system.loc_mem_ctrl.dram.avgQLat            410340.18                       # Average queueing delay per DRAM burst ((Tick/Count))
system.loc_mem_ctrl.dram.avgBusLat            3332.00                       # Average bus latency per DRAM burst ((Tick/Count))
system.loc_mem_ctrl.dram.avgMemAccLat       427832.18                       # Average memory access latency per DRAM burst ((Tick/Count))
system.loc_mem_ctrl.dram.readRowHits              207                       # Number of row buffer hits during reads (Count)
system.loc_mem_ctrl.dram.writeRowHits             579                       # Number of row buffer hits during writes (Count)
system.loc_mem_ctrl.dram.readRowHitRate          0.02                       # Row buffer hit rate for reads (Ratio)
system.loc_mem_ctrl.dram.writeRowHitRate         0.04                       # Row buffer hit rate for writes (Ratio)
system.loc_mem_ctrl.dram.bytesPerActivate::samples      2647481                       # Bytes accessed per row activation (Byte)
system.loc_mem_ctrl.dram.bytesPerActivate::mean    64.019001                       # Bytes accessed per row activation (Byte)
system.loc_mem_ctrl.dram.bytesPerActivate::gmean    64.013172                       # Bytes accessed per row activation (Byte)
system.loc_mem_ctrl.dram.bytesPerActivate::stdev     1.102581                       # Bytes accessed per row activation (Byte)
system.loc_mem_ctrl.dram.bytesPerActivate::64-79      2646695     99.97%     99.97% # Bytes accessed per row activation (Byte)
system.loc_mem_ctrl.dram.bytesPerActivate::128-143          786      0.03%    100.00% # Bytes accessed per row activation (Byte)
system.loc_mem_ctrl.dram.bytesPerActivate::total      2647481                       # Bytes accessed per row activation (Byte)
system.loc_mem_ctrl.dram.bytesRead           84749056                       # Total bytes read (Byte)
system.loc_mem_ctrl.dram.bytesWritten        84740864                       # Total bytes written (Byte)
system.loc_mem_ctrl.dram.avgRdBW          8474.888023                       # Average DRAM read bandwidth in MiBytes/s ((Byte/Second))
system.loc_mem_ctrl.dram.avgWrBW          8474.068825                       # Average DRAM write bandwidth in MiBytes/s ((Byte/Second))
system.loc_mem_ctrl.dram.peakBW              19207.00                       # Theoretical peak bandwidth in MiByte/s ((Byte/Second))
system.loc_mem_ctrl.dram.busUtil                88.24                       # Data bus utilization in percentage (Ratio)
system.loc_mem_ctrl.dram.busUtilRead            44.12                       # Data bus utilization in percentage for reads (Ratio)
system.loc_mem_ctrl.dram.busUtilWrite           44.12                       # Data bus utilization in percentage for writes (Ratio)
system.loc_mem_ctrl.dram.pageHitRate             0.03                       # Row buffer hit rate, read and write combined (Ratio)
system.loc_mem_ctrl.dram.power_state.pwrStateResidencyTicks::UNDEFINED  10000020740                       # Cumulative time (in ticks) in various power states (Tick)
system.loc_mem_ctrl.dram.rank0.actEnergy 4128507216.288002                       # Energy for activate commands per rank (pJ) (Joule)
system.loc_mem_ctrl.dram.rank0.preEnergy 5488751804.726398                       # Energy for precharge commands per rank (pJ) (Joule)
system.loc_mem_ctrl.dram.rank0.readEnergy 2785128542.784004                       # Energy for read commands per rank (pJ) (Joule)
system.loc_mem_ctrl.dram.rank0.writeEnergy 2488361137.247997                       # Energy for write commands per rank (pJ) (Joule)
system.loc_mem_ctrl.dram.rank0.refreshEnergy 1778824873.324749                       # Energy for refresh commands per rank (pJ) (Joule)
system.loc_mem_ctrl.dram.rank0.actBackEnergy 8450365769.092798                       # Energy for active background per rank (pJ) (Joule)
system.loc_mem_ctrl.dram.rank0.preBackEnergy 35077227.494400                       # Energy for precharge background per rank (pJ) (Joule)
system.loc_mem_ctrl.dram.rank0.actPowerDownEnergy            0                       # Energy for active power-down per rank (pJ) (Joule)
system.loc_mem_ctrl.dram.rank0.prePowerDownEnergy            0                       # Energy for precharge power-down per rank (pJ) (Joule)
system.loc_mem_ctrl.dram.rank0.selfRefreshEnergy            0                       # Energy for self refresh per rank (pJ) (Joule)
system.loc_mem_ctrl.dram.rank0.totalEnergy 25155016570.958431                       # Total energy per rank (pJ) (Joule)
system.loc_mem_ctrl.dram.rank0.averagePower  2515.496440                       # Core power per rank (mW) (Watt)
system.loc_mem_ctrl.dram.rank0.totalIdleTime            0                       # Total Idle time Per DRAM Rank (Tick)
system.loc_mem_ctrl.dram.rank0.pwrStateTime::IDLE     17989156                       # Time in different power states (Tick)
system.loc_mem_ctrl.dram.rank0.pwrStateTime::REF    449400000                       # Time in different power states (Tick)
system.loc_mem_ctrl.dram.rank0.pwrStateTime::SREF            0                       # Time in different power states (Tick)
system.loc_mem_ctrl.dram.rank0.pwrStateTime::PRE_PDN            0                       # Time in different power states (Tick)
system.loc_mem_ctrl.dram.rank0.pwrStateTime::ACT   9532631584                       # Time in different power states (Tick)
system.loc_mem_ctrl.dram.rank0.pwrStateTime::ACT_PDN            0                       # Time in different power states (Tick)
system.loc_mem_ctrl.dram.rank1.actEnergy 4128357516.192001                       # Energy for activate commands per rank (pJ) (Joule)
system.loc_mem_ctrl.dram.rank1.preEnergy 5488569365.731209                       # Energy for precharge commands per rank (pJ) (Joule)
system.loc_mem_ctrl.dram.rank1.readEnergy 2784859338.508801                       # Energy for read commands per rank (pJ) (Joule)
system.loc_mem_ctrl.dram.rank1.writeEnergy 2488173212.447999                       # Energy for write commands per rank (pJ) (Joule)
system.loc_mem_ctrl.dram.rank1.refreshEnergy 1778824873.324749                       # Energy for refresh commands per rank (pJ) (Joule)
system.loc_mem_ctrl.dram.rank1.actBackEnergy 8452066412.563194                       # Energy for active background per rank (pJ) (Joule)
system.loc_mem_ctrl.dram.rank1.preBackEnergy 33770518.387200                       # Energy for precharge background per rank (pJ) (Joule)
system.loc_mem_ctrl.dram.rank1.actPowerDownEnergy            0                       # Energy for active power-down per rank (pJ) (Joule)
system.loc_mem_ctrl.dram.rank1.prePowerDownEnergy            0                       # Energy for precharge power-down per rank (pJ) (Joule)
system.loc_mem_ctrl.dram.rank1.selfRefreshEnergy            0                       # Energy for self refresh per rank (pJ) (Joule)
system.loc_mem_ctrl.dram.rank1.totalEnergy 25154621237.155212                       # Total energy per rank (pJ) (Joule)
system.loc_mem_ctrl.dram.rank1.averagePower  2515.456907                       # Core power per rank (mW) (Watt)
system.loc_mem_ctrl.dram.rank1.totalIdleTime            0                       # Total Idle time Per DRAM Rank (Tick)
system.loc_mem_ctrl.dram.rank1.pwrStateTime::IDLE     15897984                       # Time in different power states (Tick)
system.loc_mem_ctrl.dram.rank1.pwrStateTime::REF    449400000                       # Time in different power states (Tick)
system.loc_mem_ctrl.dram.rank1.pwrStateTime::SREF            0                       # Time in different power states (Tick)
system.loc_mem_ctrl.dram.rank1.pwrStateTime::PRE_PDN            0                       # Time in different power states (Tick)
system.loc_mem_ctrl.dram.rank1.pwrStateTime::ACT   9534722756                       # Time in different power states (Tick)
system.loc_mem_ctrl.dram.rank1.pwrStateTime::ACT_PDN            0                       # Time in different power states (Tick)
system.loc_mem_ctrl.power_state.pwrStateResidencyTicks::UNDEFINED  10000020740                       # Cumulative time (in ticks) in various power states (Tick)
system.mem_ctrl.bytesRead::generator         56215680                       # Number of bytes read from this memory (Byte)
system.mem_ctrl.bytesRead::total             56215680                       # Number of bytes read from this memory (Byte)
system.mem_ctrl.bytesWritten::generator      28536000                       # Number of bytes written to this memory (Byte)
system.mem_ctrl.bytesWritten::total          28536000                       # Number of bytes written to this memory (Byte)
system.mem_ctrl.numReads::generator            878370                       # Number of read requests responded to by this memory (Count)
system.mem_ctrl.numReads::total                878370                       # Number of read requests responded to by this memory (Count)
system.mem_ctrl.numWrites::generator           445875                       # Number of write requests responded to by this memory (Count)
system.mem_ctrl.numWrites::total               445875                       # Number of write requests responded to by this memory (Count)
system.mem_ctrl.bwRead::generator          5621556341                       # Total read bandwidth from this memory ((Byte/Second))
system.mem_ctrl.bwRead::total              5621556341                       # Total read bandwidth from this memory ((Byte/Second))
system.mem_ctrl.bwWrite::generator         2853594082                       # Write bandwidth from this memory ((Byte/Second))
system.mem_ctrl.bwWrite::total             2853594082                       # Write bandwidth from this memory ((Byte/Second))
system.mem_ctrl.bwTotal::generator         8475150423                       # Total bandwidth to/from this memory ((Byte/Second))
system.mem_ctrl.bwTotal::total             8475150423                       # Total bandwidth to/from this memory ((Byte/Second))
system.mem_ctrl.readReqs                       878544                       # Number of read requests accepted (Count)
system.mem_ctrl.writeReqs                      445875                       # Number of write requests accepted (Count)
system.mem_ctrl.servicedByWrQ                       2                       # Number of controller read bursts serviced by the write queue (Count)
system.mem_ctrl.mergedWrBursts                      0                       # Number of controller write bursts merged with an existing one (Count)
system.mem_ctrl.numRdRetry                     878128                       # Number of times read queue was full causing retry (Count)
system.mem_ctrl.numWrRetry                     445642                       # Number of times write queue was full causing retry (Count)
system.mem_ctrl.readPktSize::0                      0                       # Read request sizes (log2) (Count)
system.mem_ctrl.readPktSize::1                      0                       # Read request sizes (log2) (Count)
system.mem_ctrl.readPktSize::2                      0                       # Read request sizes (log2) (Count)
system.mem_ctrl.readPktSize::3                      0                       # Read request sizes (log2) (Count)
system.mem_ctrl.readPktSize::4                      0                       # Read request sizes (log2) (Count)
system.mem_ctrl.readPktSize::5                      0                       # Read request sizes (log2) (Count)
system.mem_ctrl.readPktSize::6                 878544                       # Read request sizes (log2) (Count)
system.mem_ctrl.writePktSize::0                     0                       # Write request sizes (log2) (Count)
system.mem_ctrl.writePktSize::1                     0                       # Write request sizes (log2) (Count)
system.mem_ctrl.writePktSize::2                     0                       # Write request sizes (log2) (Count)
system.mem_ctrl.writePktSize::3                     0                       # Write request sizes (log2) (Count)
system.mem_ctrl.writePktSize::4                     0                       # Write request sizes (log2) (Count)
system.mem_ctrl.writePktSize::5                     0                       # Write request sizes (log2) (Count)
system.mem_ctrl.writePktSize::6                445875                       # Write request sizes (log2) (Count)
system.mem_ctrl.bytesReadWrQ                      128                       # Total number of bytes read from write queue (Byte)
system.mem_ctrl.bytesReadSys                 56226816                       # Total read bytes from the system interface side (Byte)
system.mem_ctrl.bytesWrittenSys              28536000                       # Total written bytes from the system interface side (Byte)
system.mem_ctrl.avgRdBWSys               5622669938.58254719                       # Average system read bandwidth in Byte/s ((Byte/Second))
system.mem_ctrl.avgWrBWSys               2853594081.64587450                       # Average system write bandwidth in Byte/s ((Byte/Second))
system.mem_ctrl.totGap                   18446603803645706240                       # Total gap between requests (Tick)
system.mem_ctrl.avgGap                   13928072463205.15                       # Average gap between requests ((Tick/Count))
system.mem_ctrl.avgORBLen                    255.9963                       # Average ORB length ((Count/Tick))
system.mem_ctrl.avgLocRdQLenStrt               130.06                       # Average local read queue length ((Count/Tick))
system.mem_ctrl.avgLocWrQLenStrt                42.04                       # Average local write queue length ((Count/Tick))
system.mem_ctrl.avgFarRdQLenStrt                 0.50                       # Average far read queue length ((Count/Tick))
system.mem_ctrl.avgFarWrQLenStrt                 0.15                       # Average far write queue length ((Count/Tick))
system.mem_ctrl.avgLocRdQLenEnq                131.06                       # Average local read queue length when enqueuing ((Count/Tick))
system.mem_ctrl.avgLocWrQLenEnq                124.24                       # Average local write queue length when enqueuing ((Count/Tick))
system.mem_ctrl.avgFarRdQLenEnq                  4.91                       # Average far read queue length when enqueuing ((Count/Tick))
system.mem_ctrl.avgFarWrQLenEnq                  2.97                       # Average far write queue length when enqueuing ((Count/Tick))
system.mem_ctrl.numWrBacks                    1324191                       # Total number of write backs from DRAM cache to main memory (Unspecified)
system.mem_ctrl.totNumConf                        317                       # Total number of packets conflicted on DRAM cache (Unspecified)
system.mem_ctrl.totNumORBFull                 1323770                       # Total number of packets ORB full (Unspecified)
system.mem_ctrl.totNumCRBFull                       0                       # Total number of packets conflicted yet couldn't enter confBuffer (Unspecified)
system.mem_ctrl.maxNumConf                          2                       # Maximum number of packets conflicted on DRAM cache (Unspecified)
system.mem_ctrl.sentLocRdPort                 1324261                       # stat (Unspecified)
system.mem_ctrl.sentLocWrPort                 1324163                       # stat (Unspecified)
system.mem_ctrl.failedLocRdPort               2686261                       # stat (Unspecified)
system.mem_ctrl.failedLocWrPort               2545210                       # stat (Unspecified)
system.mem_ctrl.recvdRdPort                         0                       # stat (Unspecified)
system.mem_ctrl.sentFarRdPort                  878398                       # stat (Unspecified)
system.mem_ctrl.sentFarWrPort                 1324191                       # stat (Unspecified)
system.mem_ctrl.failedFarRdPort                 98908                       # stat (Unspecified)
system.mem_ctrl.failedFarWrPort                 98514                       # stat (Unspecified)
system.mem_ctrl.totPktsServiceTime         2559392690                       # stat (Unspecified)
system.mem_ctrl.totPktsORBTime             2559098540                       # stat (Unspecified)
system.mem_ctrl.totTimeFarRdtoSend           10056711                       # stat (Unspecified)
system.mem_ctrl.totTimeFarRdtoRecv          174138066                       # stat (Unspecified)
system.mem_ctrl.totTimeFarWrtoSend                  0                       # stat (Unspecified)
system.mem_ctrl.totTimeInLocRead           1560711876                       # stat (Unspecified)
system.mem_ctrl.totTimeInLocWrite           813221215                       # stat (Unspecified)
system.mem_ctrl.totTimeInFarRead            184224773                       # stat (Unspecified)
system.mem_ctrl.numTotHits                          0                       # stat (Unspecified)
system.mem_ctrl.numTotMisses                  1324419                       # stat (Unspecified)
system.mem_ctrl.numColdMisses                  752349                       # stat (Unspecified)
system.mem_ctrl.numHotMisses                   572070                       # stat (Unspecified)
system.mem_ctrl.numRdMissClean                 751021                       # stat (Unspecified)
system.mem_ctrl.numRdMissDirty                 127523                       # stat (Unspecified)
system.mem_ctrl.numRdHit                            0                       # stat (Unspecified)
system.mem_ctrl.numWrMissClean                 381132                       # stat (Unspecified)
system.mem_ctrl.numWrMissDirty                  64743                       # stat (Unspecified)
system.mem_ctrl.numWrHit                            0                       # stat (Unspecified)
system.mem_ctrl.numRdHitDirty                       0                       # stat (Unspecified)
system.mem_ctrl.numRdHitClean                       0                       # stat (Unspecified)
system.mem_ctrl.numWrHitDirty                       0                       # stat (Unspecified)
system.mem_ctrl.numWrHitClean                       0                       # stat (Unspecified)
system.mem_ctrl.power_state.pwrStateResidencyTicks::UNDEFINED  10000020740                       # Cumulative time (in ticks) in various power states (Tick)
system.workload.inst.arm                            0                       # number of arm instructions executed (Count)
system.workload.inst.quiesce                        0                       # number of quiesce instructions executed (Count)

---------- End Simulation Statistics   ----------
