
---------- Begin Simulation Statistics ----------
simSeconds                                   0.100000                       # Number of seconds simulated (Second)
simTicks                                 100000000000                       # Number of ticks simulated (Tick)
finalTick                                19316450185400                       # Number of ticks from beginning of simulation (restored from checkpoints and never reset) (Tick)
simFreq                                  1000000000000                       # The number of ticks per simulated second ((Tick/Second))
hostSeconds                                    562.44                       # Real time elapsed on the host (Second)
hostTickRate                                177797091                       # The number of ticks simulated per host second (ticks/s) ((Tick/Second))
hostMemory                                    7428496                       # Number of bytes of host memory used (Byte)
simInsts                                  24802248726                       # Number of instructions simulated (Count)
simOps                                    24833738194                       # Number of ops (including micro ops) simulated (Count)
hostInstRate                                 44097666                       # Simulator instruction rate (inst/s) ((Count/Second))
hostOpRate                                   44153653                       # Simulator op (including micro ops) rate (op/s) ((Count/Second))
system.atomicCpu0.numCycles                         0                       # Number of cpu cycles simulated (Cycle)
system.atomicCpu0.numWorkItemsStarted               0                       # Number of work items this cpu started (Count)
system.atomicCpu0.numWorkItemsCompleted             0                       # Number of work items this cpu completed (Count)
system.atomicCpu0.exec_context.thread_0.numInsts            0                       # Number of instructions committed (Count)
system.atomicCpu0.exec_context.thread_0.numOps            0                       # Number of ops (including micro ops) committed (Count)
system.atomicCpu0.exec_context.thread_0.numIntAluAccesses            0                       # Number of integer alu accesses (Count)
system.atomicCpu0.exec_context.thread_0.numFpAluAccesses            0                       # Number of float alu accesses (Count)
system.atomicCpu0.exec_context.thread_0.numVecAluAccesses            0                       # Number of vector alu accesses (Count)
system.atomicCpu0.exec_context.thread_0.numCallsReturns            0                       # Number of times a function call or return occured (Count)
system.atomicCpu0.exec_context.thread_0.numCondCtrlInsts            0                       # Number of instructions that are conditional controls (Count)
system.atomicCpu0.exec_context.thread_0.numIntInsts            0                       # Number of integer instructions (Count)
system.atomicCpu0.exec_context.thread_0.numFpInsts            0                       # Number of float instructions (Count)
system.atomicCpu0.exec_context.thread_0.numVecInsts            0                       # Number of vector instructions (Count)
system.atomicCpu0.exec_context.thread_0.numIntRegReads            0                       # Number of times the integer registers were read (Count)
system.atomicCpu0.exec_context.thread_0.numIntRegWrites            0                       # Number of times the integer registers were written (Count)
system.atomicCpu0.exec_context.thread_0.numFpRegReads            0                       # Number of times the floating registers were read (Count)
system.atomicCpu0.exec_context.thread_0.numFpRegWrites            0                       # Number of times the floating registers were written (Count)
system.atomicCpu0.exec_context.thread_0.numVecRegReads            0                       # Number of times the vector registers were read (Count)
system.atomicCpu0.exec_context.thread_0.numVecRegWrites            0                       # Number of times the vector registers were written (Count)
system.atomicCpu0.exec_context.thread_0.numVecPredRegReads            0                       # Number of times the predicate registers were read (Count)
system.atomicCpu0.exec_context.thread_0.numVecPredRegWrites            0                       # Number of times the predicate registers were written (Count)
system.atomicCpu0.exec_context.thread_0.numMiscRegReads            0                       # Number of times the Misc registers were read (Count)
system.atomicCpu0.exec_context.thread_0.numMiscRegWrites            0                       # Number of times the Misc registers were written (Count)
system.atomicCpu0.exec_context.thread_0.numMemRefs            0                       # Number of memory refs (Count)
system.atomicCpu0.exec_context.thread_0.numLoadInsts            0                       # Number of load instructions (Count)
system.atomicCpu0.exec_context.thread_0.numStoreInsts            0                       # Number of store instructions (Count)
system.atomicCpu0.exec_context.thread_0.numIdleCycles            0                       # Number of idle cycles (Cycle)
system.atomicCpu0.exec_context.thread_0.numBusyCycles            0                       # Number of busy cycles (Cycle)
system.atomicCpu0.exec_context.thread_0.notIdleFraction            0                       # Percentage of non-idle cycles (Ratio)
system.atomicCpu0.exec_context.thread_0.idleFraction            1                       # Percentage of idle cycles (Ratio)
system.atomicCpu0.exec_context.thread_0.statExecutedInstType::No_OpClass            0                       # Class of executed instruction. (Count)
system.atomicCpu0.exec_context.thread_0.statExecutedInstType::IntAlu            0                       # Class of executed instruction. (Count)
system.atomicCpu0.exec_context.thread_0.statExecutedInstType::IntMult            0                       # Class of executed instruction. (Count)
system.atomicCpu0.exec_context.thread_0.statExecutedInstType::IntDiv            0                       # Class of executed instruction. (Count)
system.atomicCpu0.exec_context.thread_0.statExecutedInstType::FloatAdd            0                       # Class of executed instruction. (Count)
system.atomicCpu0.exec_context.thread_0.statExecutedInstType::FloatCmp            0                       # Class of executed instruction. (Count)
system.atomicCpu0.exec_context.thread_0.statExecutedInstType::FloatCvt            0                       # Class of executed instruction. (Count)
system.atomicCpu0.exec_context.thread_0.statExecutedInstType::FloatMult            0                       # Class of executed instruction. (Count)
system.atomicCpu0.exec_context.thread_0.statExecutedInstType::FloatMultAcc            0                       # Class of executed instruction. (Count)
system.atomicCpu0.exec_context.thread_0.statExecutedInstType::FloatDiv            0                       # Class of executed instruction. (Count)
system.atomicCpu0.exec_context.thread_0.statExecutedInstType::FloatMisc            0                       # Class of executed instruction. (Count)
system.atomicCpu0.exec_context.thread_0.statExecutedInstType::FloatSqrt            0                       # Class of executed instruction. (Count)
system.atomicCpu0.exec_context.thread_0.statExecutedInstType::SimdAdd            0                       # Class of executed instruction. (Count)
system.atomicCpu0.exec_context.thread_0.statExecutedInstType::SimdAddAcc            0                       # Class of executed instruction. (Count)
system.atomicCpu0.exec_context.thread_0.statExecutedInstType::SimdAlu            0                       # Class of executed instruction. (Count)
system.atomicCpu0.exec_context.thread_0.statExecutedInstType::SimdCmp            0                       # Class of executed instruction. (Count)
system.atomicCpu0.exec_context.thread_0.statExecutedInstType::SimdCvt            0                       # Class of executed instruction. (Count)
system.atomicCpu0.exec_context.thread_0.statExecutedInstType::SimdMisc            0                       # Class of executed instruction. (Count)
system.atomicCpu0.exec_context.thread_0.statExecutedInstType::SimdMult            0                       # Class of executed instruction. (Count)
system.atomicCpu0.exec_context.thread_0.statExecutedInstType::SimdMultAcc            0                       # Class of executed instruction. (Count)
system.atomicCpu0.exec_context.thread_0.statExecutedInstType::SimdShift            0                       # Class of executed instruction. (Count)
system.atomicCpu0.exec_context.thread_0.statExecutedInstType::SimdShiftAcc            0                       # Class of executed instruction. (Count)
system.atomicCpu0.exec_context.thread_0.statExecutedInstType::SimdDiv            0                       # Class of executed instruction. (Count)
system.atomicCpu0.exec_context.thread_0.statExecutedInstType::SimdSqrt            0                       # Class of executed instruction. (Count)
system.atomicCpu0.exec_context.thread_0.statExecutedInstType::SimdFloatAdd            0                       # Class of executed instruction. (Count)
system.atomicCpu0.exec_context.thread_0.statExecutedInstType::SimdFloatAlu            0                       # Class of executed instruction. (Count)
system.atomicCpu0.exec_context.thread_0.statExecutedInstType::SimdFloatCmp            0                       # Class of executed instruction. (Count)
system.atomicCpu0.exec_context.thread_0.statExecutedInstType::SimdFloatCvt            0                       # Class of executed instruction. (Count)
system.atomicCpu0.exec_context.thread_0.statExecutedInstType::SimdFloatDiv            0                       # Class of executed instruction. (Count)
system.atomicCpu0.exec_context.thread_0.statExecutedInstType::SimdFloatMisc            0                       # Class of executed instruction. (Count)
system.atomicCpu0.exec_context.thread_0.statExecutedInstType::SimdFloatMult            0                       # Class of executed instruction. (Count)
system.atomicCpu0.exec_context.thread_0.statExecutedInstType::SimdFloatMultAcc            0                       # Class of executed instruction. (Count)
system.atomicCpu0.exec_context.thread_0.statExecutedInstType::SimdFloatSqrt            0                       # Class of executed instruction. (Count)
system.atomicCpu0.exec_context.thread_0.statExecutedInstType::SimdReduceAdd            0                       # Class of executed instruction. (Count)
system.atomicCpu0.exec_context.thread_0.statExecutedInstType::SimdReduceAlu            0                       # Class of executed instruction. (Count)
system.atomicCpu0.exec_context.thread_0.statExecutedInstType::SimdReduceCmp            0                       # Class of executed instruction. (Count)
system.atomicCpu0.exec_context.thread_0.statExecutedInstType::SimdFloatReduceAdd            0                       # Class of executed instruction. (Count)
system.atomicCpu0.exec_context.thread_0.statExecutedInstType::SimdFloatReduceCmp            0                       # Class of executed instruction. (Count)
system.atomicCpu0.exec_context.thread_0.statExecutedInstType::SimdAes            0                       # Class of executed instruction. (Count)
system.atomicCpu0.exec_context.thread_0.statExecutedInstType::SimdAesMix            0                       # Class of executed instruction. (Count)
system.atomicCpu0.exec_context.thread_0.statExecutedInstType::SimdSha1Hash            0                       # Class of executed instruction. (Count)
system.atomicCpu0.exec_context.thread_0.statExecutedInstType::SimdSha1Hash2            0                       # Class of executed instruction. (Count)
system.atomicCpu0.exec_context.thread_0.statExecutedInstType::SimdSha256Hash            0                       # Class of executed instruction. (Count)
system.atomicCpu0.exec_context.thread_0.statExecutedInstType::SimdSha256Hash2            0                       # Class of executed instruction. (Count)
system.atomicCpu0.exec_context.thread_0.statExecutedInstType::SimdShaSigma2            0                       # Class of executed instruction. (Count)
system.atomicCpu0.exec_context.thread_0.statExecutedInstType::SimdShaSigma3            0                       # Class of executed instruction. (Count)
system.atomicCpu0.exec_context.thread_0.statExecutedInstType::SimdPredAlu            0                       # Class of executed instruction. (Count)
system.atomicCpu0.exec_context.thread_0.statExecutedInstType::MemRead            0                       # Class of executed instruction. (Count)
system.atomicCpu0.exec_context.thread_0.statExecutedInstType::MemWrite            0                       # Class of executed instruction. (Count)
system.atomicCpu0.exec_context.thread_0.statExecutedInstType::FloatMemRead            0                       # Class of executed instruction. (Count)
system.atomicCpu0.exec_context.thread_0.statExecutedInstType::FloatMemWrite            0                       # Class of executed instruction. (Count)
system.atomicCpu0.exec_context.thread_0.statExecutedInstType::IprAccess            0                       # Class of executed instruction. (Count)
system.atomicCpu0.exec_context.thread_0.statExecutedInstType::InstPrefetch            0                       # Class of executed instruction. (Count)
system.atomicCpu0.exec_context.thread_0.statExecutedInstType::total            0                       # Class of executed instruction. (Count)
system.atomicCpu0.mmu.dtb.rdAccesses                0                       # TLB accesses on read requests (Count)
system.atomicCpu0.mmu.dtb.wrAccesses                0                       # TLB accesses on write requests (Count)
system.atomicCpu0.mmu.dtb.rdMisses                  0                       # TLB misses on read requests (Count)
system.atomicCpu0.mmu.dtb.wrMisses                  0                       # TLB misses on write requests (Count)
system.atomicCpu0.mmu.dtb.walker.power_state.pwrStateResidencyTicks::UNDEFINED 19316450185400                       # Cumulative time (in ticks) in various power states (Tick)
system.atomicCpu0.mmu.itb.rdAccesses                0                       # TLB accesses on read requests (Count)
system.atomicCpu0.mmu.itb.wrAccesses                0                       # TLB accesses on write requests (Count)
system.atomicCpu0.mmu.itb.rdMisses                  0                       # TLB misses on read requests (Count)
system.atomicCpu0.mmu.itb.wrMisses                  0                       # TLB misses on write requests (Count)
system.atomicCpu0.mmu.itb.walker.power_state.pwrStateResidencyTicks::UNDEFINED 19316450185400                       # Cumulative time (in ticks) in various power states (Tick)
system.atomicCpu0.power_state.pwrStateResidencyTicks::OFF 19316450185400                       # Cumulative time (in ticks) in various power states (Tick)
system.atomicCpu0.thread_0.numInsts                 0                       # Number of Instructions committed (Count)
system.atomicCpu0.thread_0.numOps                   0                       # Number of Ops committed (Count)
system.atomicCpu0.thread_0.numMemRefs               0                       # Number of Memory References (Count)
system.atomicCpu1.numCycles                         0                       # Number of cpu cycles simulated (Cycle)
system.atomicCpu1.numWorkItemsStarted               0                       # Number of work items this cpu started (Count)
system.atomicCpu1.numWorkItemsCompleted             0                       # Number of work items this cpu completed (Count)
system.atomicCpu1.exec_context.thread_0.numInsts            0                       # Number of instructions committed (Count)
system.atomicCpu1.exec_context.thread_0.numOps            0                       # Number of ops (including micro ops) committed (Count)
system.atomicCpu1.exec_context.thread_0.numIntAluAccesses            0                       # Number of integer alu accesses (Count)
system.atomicCpu1.exec_context.thread_0.numFpAluAccesses            0                       # Number of float alu accesses (Count)
system.atomicCpu1.exec_context.thread_0.numVecAluAccesses            0                       # Number of vector alu accesses (Count)
system.atomicCpu1.exec_context.thread_0.numCallsReturns            0                       # Number of times a function call or return occured (Count)
system.atomicCpu1.exec_context.thread_0.numCondCtrlInsts            0                       # Number of instructions that are conditional controls (Count)
system.atomicCpu1.exec_context.thread_0.numIntInsts            0                       # Number of integer instructions (Count)
system.atomicCpu1.exec_context.thread_0.numFpInsts            0                       # Number of float instructions (Count)
system.atomicCpu1.exec_context.thread_0.numVecInsts            0                       # Number of vector instructions (Count)
system.atomicCpu1.exec_context.thread_0.numIntRegReads            0                       # Number of times the integer registers were read (Count)
system.atomicCpu1.exec_context.thread_0.numIntRegWrites            0                       # Number of times the integer registers were written (Count)
system.atomicCpu1.exec_context.thread_0.numFpRegReads            0                       # Number of times the floating registers were read (Count)
system.atomicCpu1.exec_context.thread_0.numFpRegWrites            0                       # Number of times the floating registers were written (Count)
system.atomicCpu1.exec_context.thread_0.numVecRegReads            0                       # Number of times the vector registers were read (Count)
system.atomicCpu1.exec_context.thread_0.numVecRegWrites            0                       # Number of times the vector registers were written (Count)
system.atomicCpu1.exec_context.thread_0.numVecPredRegReads            0                       # Number of times the predicate registers were read (Count)
system.atomicCpu1.exec_context.thread_0.numVecPredRegWrites            0                       # Number of times the predicate registers were written (Count)
system.atomicCpu1.exec_context.thread_0.numMiscRegReads            0                       # Number of times the Misc registers were read (Count)
system.atomicCpu1.exec_context.thread_0.numMiscRegWrites            0                       # Number of times the Misc registers were written (Count)
system.atomicCpu1.exec_context.thread_0.numMemRefs            0                       # Number of memory refs (Count)
system.atomicCpu1.exec_context.thread_0.numLoadInsts            0                       # Number of load instructions (Count)
system.atomicCpu1.exec_context.thread_0.numStoreInsts            0                       # Number of store instructions (Count)
system.atomicCpu1.exec_context.thread_0.numIdleCycles            0                       # Number of idle cycles (Cycle)
system.atomicCpu1.exec_context.thread_0.numBusyCycles            0                       # Number of busy cycles (Cycle)
system.atomicCpu1.exec_context.thread_0.notIdleFraction            0                       # Percentage of non-idle cycles (Ratio)
system.atomicCpu1.exec_context.thread_0.idleFraction            1                       # Percentage of idle cycles (Ratio)
system.atomicCpu1.exec_context.thread_0.statExecutedInstType::No_OpClass            0                       # Class of executed instruction. (Count)
system.atomicCpu1.exec_context.thread_0.statExecutedInstType::IntAlu            0                       # Class of executed instruction. (Count)
system.atomicCpu1.exec_context.thread_0.statExecutedInstType::IntMult            0                       # Class of executed instruction. (Count)
system.atomicCpu1.exec_context.thread_0.statExecutedInstType::IntDiv            0                       # Class of executed instruction. (Count)
system.atomicCpu1.exec_context.thread_0.statExecutedInstType::FloatAdd            0                       # Class of executed instruction. (Count)
system.atomicCpu1.exec_context.thread_0.statExecutedInstType::FloatCmp            0                       # Class of executed instruction. (Count)
system.atomicCpu1.exec_context.thread_0.statExecutedInstType::FloatCvt            0                       # Class of executed instruction. (Count)
system.atomicCpu1.exec_context.thread_0.statExecutedInstType::FloatMult            0                       # Class of executed instruction. (Count)
system.atomicCpu1.exec_context.thread_0.statExecutedInstType::FloatMultAcc            0                       # Class of executed instruction. (Count)
system.atomicCpu1.exec_context.thread_0.statExecutedInstType::FloatDiv            0                       # Class of executed instruction. (Count)
system.atomicCpu1.exec_context.thread_0.statExecutedInstType::FloatMisc            0                       # Class of executed instruction. (Count)
system.atomicCpu1.exec_context.thread_0.statExecutedInstType::FloatSqrt            0                       # Class of executed instruction. (Count)
system.atomicCpu1.exec_context.thread_0.statExecutedInstType::SimdAdd            0                       # Class of executed instruction. (Count)
system.atomicCpu1.exec_context.thread_0.statExecutedInstType::SimdAddAcc            0                       # Class of executed instruction. (Count)
system.atomicCpu1.exec_context.thread_0.statExecutedInstType::SimdAlu            0                       # Class of executed instruction. (Count)
system.atomicCpu1.exec_context.thread_0.statExecutedInstType::SimdCmp            0                       # Class of executed instruction. (Count)
system.atomicCpu1.exec_context.thread_0.statExecutedInstType::SimdCvt            0                       # Class of executed instruction. (Count)
system.atomicCpu1.exec_context.thread_0.statExecutedInstType::SimdMisc            0                       # Class of executed instruction. (Count)
system.atomicCpu1.exec_context.thread_0.statExecutedInstType::SimdMult            0                       # Class of executed instruction. (Count)
system.atomicCpu1.exec_context.thread_0.statExecutedInstType::SimdMultAcc            0                       # Class of executed instruction. (Count)
system.atomicCpu1.exec_context.thread_0.statExecutedInstType::SimdShift            0                       # Class of executed instruction. (Count)
system.atomicCpu1.exec_context.thread_0.statExecutedInstType::SimdShiftAcc            0                       # Class of executed instruction. (Count)
system.atomicCpu1.exec_context.thread_0.statExecutedInstType::SimdDiv            0                       # Class of executed instruction. (Count)
system.atomicCpu1.exec_context.thread_0.statExecutedInstType::SimdSqrt            0                       # Class of executed instruction. (Count)
system.atomicCpu1.exec_context.thread_0.statExecutedInstType::SimdFloatAdd            0                       # Class of executed instruction. (Count)
system.atomicCpu1.exec_context.thread_0.statExecutedInstType::SimdFloatAlu            0                       # Class of executed instruction. (Count)
system.atomicCpu1.exec_context.thread_0.statExecutedInstType::SimdFloatCmp            0                       # Class of executed instruction. (Count)
system.atomicCpu1.exec_context.thread_0.statExecutedInstType::SimdFloatCvt            0                       # Class of executed instruction. (Count)
system.atomicCpu1.exec_context.thread_0.statExecutedInstType::SimdFloatDiv            0                       # Class of executed instruction. (Count)
system.atomicCpu1.exec_context.thread_0.statExecutedInstType::SimdFloatMisc            0                       # Class of executed instruction. (Count)
system.atomicCpu1.exec_context.thread_0.statExecutedInstType::SimdFloatMult            0                       # Class of executed instruction. (Count)
system.atomicCpu1.exec_context.thread_0.statExecutedInstType::SimdFloatMultAcc            0                       # Class of executed instruction. (Count)
system.atomicCpu1.exec_context.thread_0.statExecutedInstType::SimdFloatSqrt            0                       # Class of executed instruction. (Count)
system.atomicCpu1.exec_context.thread_0.statExecutedInstType::SimdReduceAdd            0                       # Class of executed instruction. (Count)
system.atomicCpu1.exec_context.thread_0.statExecutedInstType::SimdReduceAlu            0                       # Class of executed instruction. (Count)
system.atomicCpu1.exec_context.thread_0.statExecutedInstType::SimdReduceCmp            0                       # Class of executed instruction. (Count)
system.atomicCpu1.exec_context.thread_0.statExecutedInstType::SimdFloatReduceAdd            0                       # Class of executed instruction. (Count)
system.atomicCpu1.exec_context.thread_0.statExecutedInstType::SimdFloatReduceCmp            0                       # Class of executed instruction. (Count)
system.atomicCpu1.exec_context.thread_0.statExecutedInstType::SimdAes            0                       # Class of executed instruction. (Count)
system.atomicCpu1.exec_context.thread_0.statExecutedInstType::SimdAesMix            0                       # Class of executed instruction. (Count)
system.atomicCpu1.exec_context.thread_0.statExecutedInstType::SimdSha1Hash            0                       # Class of executed instruction. (Count)
system.atomicCpu1.exec_context.thread_0.statExecutedInstType::SimdSha1Hash2            0                       # Class of executed instruction. (Count)
system.atomicCpu1.exec_context.thread_0.statExecutedInstType::SimdSha256Hash            0                       # Class of executed instruction. (Count)
system.atomicCpu1.exec_context.thread_0.statExecutedInstType::SimdSha256Hash2            0                       # Class of executed instruction. (Count)
system.atomicCpu1.exec_context.thread_0.statExecutedInstType::SimdShaSigma2            0                       # Class of executed instruction. (Count)
system.atomicCpu1.exec_context.thread_0.statExecutedInstType::SimdShaSigma3            0                       # Class of executed instruction. (Count)
system.atomicCpu1.exec_context.thread_0.statExecutedInstType::SimdPredAlu            0                       # Class of executed instruction. (Count)
system.atomicCpu1.exec_context.thread_0.statExecutedInstType::MemRead            0                       # Class of executed instruction. (Count)
system.atomicCpu1.exec_context.thread_0.statExecutedInstType::MemWrite            0                       # Class of executed instruction. (Count)
system.atomicCpu1.exec_context.thread_0.statExecutedInstType::FloatMemRead            0                       # Class of executed instruction. (Count)
system.atomicCpu1.exec_context.thread_0.statExecutedInstType::FloatMemWrite            0                       # Class of executed instruction. (Count)
system.atomicCpu1.exec_context.thread_0.statExecutedInstType::IprAccess            0                       # Class of executed instruction. (Count)
system.atomicCpu1.exec_context.thread_0.statExecutedInstType::InstPrefetch            0                       # Class of executed instruction. (Count)
system.atomicCpu1.exec_context.thread_0.statExecutedInstType::total            0                       # Class of executed instruction. (Count)
system.atomicCpu1.mmu.dtb.rdAccesses                0                       # TLB accesses on read requests (Count)
system.atomicCpu1.mmu.dtb.wrAccesses                0                       # TLB accesses on write requests (Count)
system.atomicCpu1.mmu.dtb.rdMisses                  0                       # TLB misses on read requests (Count)
system.atomicCpu1.mmu.dtb.wrMisses                  0                       # TLB misses on write requests (Count)
system.atomicCpu1.mmu.dtb.walker.power_state.pwrStateResidencyTicks::UNDEFINED 19316450185400                       # Cumulative time (in ticks) in various power states (Tick)
system.atomicCpu1.mmu.itb.rdAccesses                0                       # TLB accesses on read requests (Count)
system.atomicCpu1.mmu.itb.wrAccesses                0                       # TLB accesses on write requests (Count)
system.atomicCpu1.mmu.itb.rdMisses                  0                       # TLB misses on read requests (Count)
system.atomicCpu1.mmu.itb.wrMisses                  0                       # TLB misses on write requests (Count)
system.atomicCpu1.mmu.itb.walker.power_state.pwrStateResidencyTicks::UNDEFINED 19316450185400                       # Cumulative time (in ticks) in various power states (Tick)
system.atomicCpu1.power_state.pwrStateResidencyTicks::OFF 19316450185400                       # Cumulative time (in ticks) in various power states (Tick)
system.atomicCpu1.thread_0.numInsts                 0                       # Number of Instructions committed (Count)
system.atomicCpu1.thread_0.numOps                   0                       # Number of Ops committed (Count)
system.atomicCpu1.thread_0.numMemRefs               0                       # Number of Memory References (Count)
system.atomicCpu2.numCycles                         0                       # Number of cpu cycles simulated (Cycle)
system.atomicCpu2.numWorkItemsStarted               0                       # Number of work items this cpu started (Count)
system.atomicCpu2.numWorkItemsCompleted             0                       # Number of work items this cpu completed (Count)
system.atomicCpu2.exec_context.thread_0.numInsts            0                       # Number of instructions committed (Count)
system.atomicCpu2.exec_context.thread_0.numOps            0                       # Number of ops (including micro ops) committed (Count)
system.atomicCpu2.exec_context.thread_0.numIntAluAccesses            0                       # Number of integer alu accesses (Count)
system.atomicCpu2.exec_context.thread_0.numFpAluAccesses            0                       # Number of float alu accesses (Count)
system.atomicCpu2.exec_context.thread_0.numVecAluAccesses            0                       # Number of vector alu accesses (Count)
system.atomicCpu2.exec_context.thread_0.numCallsReturns            0                       # Number of times a function call or return occured (Count)
system.atomicCpu2.exec_context.thread_0.numCondCtrlInsts            0                       # Number of instructions that are conditional controls (Count)
system.atomicCpu2.exec_context.thread_0.numIntInsts            0                       # Number of integer instructions (Count)
system.atomicCpu2.exec_context.thread_0.numFpInsts            0                       # Number of float instructions (Count)
system.atomicCpu2.exec_context.thread_0.numVecInsts            0                       # Number of vector instructions (Count)
system.atomicCpu2.exec_context.thread_0.numIntRegReads            0                       # Number of times the integer registers were read (Count)
system.atomicCpu2.exec_context.thread_0.numIntRegWrites            0                       # Number of times the integer registers were written (Count)
system.atomicCpu2.exec_context.thread_0.numFpRegReads            0                       # Number of times the floating registers were read (Count)
system.atomicCpu2.exec_context.thread_0.numFpRegWrites            0                       # Number of times the floating registers were written (Count)
system.atomicCpu2.exec_context.thread_0.numVecRegReads            0                       # Number of times the vector registers were read (Count)
system.atomicCpu2.exec_context.thread_0.numVecRegWrites            0                       # Number of times the vector registers were written (Count)
system.atomicCpu2.exec_context.thread_0.numVecPredRegReads            0                       # Number of times the predicate registers were read (Count)
system.atomicCpu2.exec_context.thread_0.numVecPredRegWrites            0                       # Number of times the predicate registers were written (Count)
system.atomicCpu2.exec_context.thread_0.numMiscRegReads            0                       # Number of times the Misc registers were read (Count)
system.atomicCpu2.exec_context.thread_0.numMiscRegWrites            0                       # Number of times the Misc registers were written (Count)
system.atomicCpu2.exec_context.thread_0.numMemRefs            0                       # Number of memory refs (Count)
system.atomicCpu2.exec_context.thread_0.numLoadInsts            0                       # Number of load instructions (Count)
system.atomicCpu2.exec_context.thread_0.numStoreInsts            0                       # Number of store instructions (Count)
system.atomicCpu2.exec_context.thread_0.numIdleCycles            0                       # Number of idle cycles (Cycle)
system.atomicCpu2.exec_context.thread_0.numBusyCycles            0                       # Number of busy cycles (Cycle)
system.atomicCpu2.exec_context.thread_0.notIdleFraction            0                       # Percentage of non-idle cycles (Ratio)
system.atomicCpu2.exec_context.thread_0.idleFraction            1                       # Percentage of idle cycles (Ratio)
system.atomicCpu2.exec_context.thread_0.statExecutedInstType::No_OpClass            0                       # Class of executed instruction. (Count)
system.atomicCpu2.exec_context.thread_0.statExecutedInstType::IntAlu            0                       # Class of executed instruction. (Count)
system.atomicCpu2.exec_context.thread_0.statExecutedInstType::IntMult            0                       # Class of executed instruction. (Count)
system.atomicCpu2.exec_context.thread_0.statExecutedInstType::IntDiv            0                       # Class of executed instruction. (Count)
system.atomicCpu2.exec_context.thread_0.statExecutedInstType::FloatAdd            0                       # Class of executed instruction. (Count)
system.atomicCpu2.exec_context.thread_0.statExecutedInstType::FloatCmp            0                       # Class of executed instruction. (Count)
system.atomicCpu2.exec_context.thread_0.statExecutedInstType::FloatCvt            0                       # Class of executed instruction. (Count)
system.atomicCpu2.exec_context.thread_0.statExecutedInstType::FloatMult            0                       # Class of executed instruction. (Count)
system.atomicCpu2.exec_context.thread_0.statExecutedInstType::FloatMultAcc            0                       # Class of executed instruction. (Count)
system.atomicCpu2.exec_context.thread_0.statExecutedInstType::FloatDiv            0                       # Class of executed instruction. (Count)
system.atomicCpu2.exec_context.thread_0.statExecutedInstType::FloatMisc            0                       # Class of executed instruction. (Count)
system.atomicCpu2.exec_context.thread_0.statExecutedInstType::FloatSqrt            0                       # Class of executed instruction. (Count)
system.atomicCpu2.exec_context.thread_0.statExecutedInstType::SimdAdd            0                       # Class of executed instruction. (Count)
system.atomicCpu2.exec_context.thread_0.statExecutedInstType::SimdAddAcc            0                       # Class of executed instruction. (Count)
system.atomicCpu2.exec_context.thread_0.statExecutedInstType::SimdAlu            0                       # Class of executed instruction. (Count)
system.atomicCpu2.exec_context.thread_0.statExecutedInstType::SimdCmp            0                       # Class of executed instruction. (Count)
system.atomicCpu2.exec_context.thread_0.statExecutedInstType::SimdCvt            0                       # Class of executed instruction. (Count)
system.atomicCpu2.exec_context.thread_0.statExecutedInstType::SimdMisc            0                       # Class of executed instruction. (Count)
system.atomicCpu2.exec_context.thread_0.statExecutedInstType::SimdMult            0                       # Class of executed instruction. (Count)
system.atomicCpu2.exec_context.thread_0.statExecutedInstType::SimdMultAcc            0                       # Class of executed instruction. (Count)
system.atomicCpu2.exec_context.thread_0.statExecutedInstType::SimdShift            0                       # Class of executed instruction. (Count)
system.atomicCpu2.exec_context.thread_0.statExecutedInstType::SimdShiftAcc            0                       # Class of executed instruction. (Count)
system.atomicCpu2.exec_context.thread_0.statExecutedInstType::SimdDiv            0                       # Class of executed instruction. (Count)
system.atomicCpu2.exec_context.thread_0.statExecutedInstType::SimdSqrt            0                       # Class of executed instruction. (Count)
system.atomicCpu2.exec_context.thread_0.statExecutedInstType::SimdFloatAdd            0                       # Class of executed instruction. (Count)
system.atomicCpu2.exec_context.thread_0.statExecutedInstType::SimdFloatAlu            0                       # Class of executed instruction. (Count)
system.atomicCpu2.exec_context.thread_0.statExecutedInstType::SimdFloatCmp            0                       # Class of executed instruction. (Count)
system.atomicCpu2.exec_context.thread_0.statExecutedInstType::SimdFloatCvt            0                       # Class of executed instruction. (Count)
system.atomicCpu2.exec_context.thread_0.statExecutedInstType::SimdFloatDiv            0                       # Class of executed instruction. (Count)
system.atomicCpu2.exec_context.thread_0.statExecutedInstType::SimdFloatMisc            0                       # Class of executed instruction. (Count)
system.atomicCpu2.exec_context.thread_0.statExecutedInstType::SimdFloatMult            0                       # Class of executed instruction. (Count)
system.atomicCpu2.exec_context.thread_0.statExecutedInstType::SimdFloatMultAcc            0                       # Class of executed instruction. (Count)
system.atomicCpu2.exec_context.thread_0.statExecutedInstType::SimdFloatSqrt            0                       # Class of executed instruction. (Count)
system.atomicCpu2.exec_context.thread_0.statExecutedInstType::SimdReduceAdd            0                       # Class of executed instruction. (Count)
system.atomicCpu2.exec_context.thread_0.statExecutedInstType::SimdReduceAlu            0                       # Class of executed instruction. (Count)
system.atomicCpu2.exec_context.thread_0.statExecutedInstType::SimdReduceCmp            0                       # Class of executed instruction. (Count)
system.atomicCpu2.exec_context.thread_0.statExecutedInstType::SimdFloatReduceAdd            0                       # Class of executed instruction. (Count)
system.atomicCpu2.exec_context.thread_0.statExecutedInstType::SimdFloatReduceCmp            0                       # Class of executed instruction. (Count)
system.atomicCpu2.exec_context.thread_0.statExecutedInstType::SimdAes            0                       # Class of executed instruction. (Count)
system.atomicCpu2.exec_context.thread_0.statExecutedInstType::SimdAesMix            0                       # Class of executed instruction. (Count)
system.atomicCpu2.exec_context.thread_0.statExecutedInstType::SimdSha1Hash            0                       # Class of executed instruction. (Count)
system.atomicCpu2.exec_context.thread_0.statExecutedInstType::SimdSha1Hash2            0                       # Class of executed instruction. (Count)
system.atomicCpu2.exec_context.thread_0.statExecutedInstType::SimdSha256Hash            0                       # Class of executed instruction. (Count)
system.atomicCpu2.exec_context.thread_0.statExecutedInstType::SimdSha256Hash2            0                       # Class of executed instruction. (Count)
system.atomicCpu2.exec_context.thread_0.statExecutedInstType::SimdShaSigma2            0                       # Class of executed instruction. (Count)
system.atomicCpu2.exec_context.thread_0.statExecutedInstType::SimdShaSigma3            0                       # Class of executed instruction. (Count)
system.atomicCpu2.exec_context.thread_0.statExecutedInstType::SimdPredAlu            0                       # Class of executed instruction. (Count)
system.atomicCpu2.exec_context.thread_0.statExecutedInstType::MemRead            0                       # Class of executed instruction. (Count)
system.atomicCpu2.exec_context.thread_0.statExecutedInstType::MemWrite            0                       # Class of executed instruction. (Count)
system.atomicCpu2.exec_context.thread_0.statExecutedInstType::FloatMemRead            0                       # Class of executed instruction. (Count)
system.atomicCpu2.exec_context.thread_0.statExecutedInstType::FloatMemWrite            0                       # Class of executed instruction. (Count)
system.atomicCpu2.exec_context.thread_0.statExecutedInstType::IprAccess            0                       # Class of executed instruction. (Count)
system.atomicCpu2.exec_context.thread_0.statExecutedInstType::InstPrefetch            0                       # Class of executed instruction. (Count)
system.atomicCpu2.exec_context.thread_0.statExecutedInstType::total            0                       # Class of executed instruction. (Count)
system.atomicCpu2.mmu.dtb.rdAccesses                0                       # TLB accesses on read requests (Count)
system.atomicCpu2.mmu.dtb.wrAccesses                0                       # TLB accesses on write requests (Count)
system.atomicCpu2.mmu.dtb.rdMisses                  0                       # TLB misses on read requests (Count)
system.atomicCpu2.mmu.dtb.wrMisses                  0                       # TLB misses on write requests (Count)
system.atomicCpu2.mmu.dtb.walker.power_state.pwrStateResidencyTicks::UNDEFINED 19316450185400                       # Cumulative time (in ticks) in various power states (Tick)
system.atomicCpu2.mmu.itb.rdAccesses                0                       # TLB accesses on read requests (Count)
system.atomicCpu2.mmu.itb.wrAccesses                0                       # TLB accesses on write requests (Count)
system.atomicCpu2.mmu.itb.rdMisses                  0                       # TLB misses on read requests (Count)
system.atomicCpu2.mmu.itb.wrMisses                  0                       # TLB misses on write requests (Count)
system.atomicCpu2.mmu.itb.walker.power_state.pwrStateResidencyTicks::UNDEFINED 19316450185400                       # Cumulative time (in ticks) in various power states (Tick)
system.atomicCpu2.power_state.pwrStateResidencyTicks::OFF 19316450185400                       # Cumulative time (in ticks) in various power states (Tick)
system.atomicCpu2.thread_0.numInsts                 0                       # Number of Instructions committed (Count)
system.atomicCpu2.thread_0.numOps                   0                       # Number of Ops committed (Count)
system.atomicCpu2.thread_0.numMemRefs               0                       # Number of Memory References (Count)
system.atomicCpu3.numCycles                         0                       # Number of cpu cycles simulated (Cycle)
system.atomicCpu3.numWorkItemsStarted               0                       # Number of work items this cpu started (Count)
system.atomicCpu3.numWorkItemsCompleted             0                       # Number of work items this cpu completed (Count)
system.atomicCpu3.exec_context.thread_0.numInsts            0                       # Number of instructions committed (Count)
system.atomicCpu3.exec_context.thread_0.numOps            0                       # Number of ops (including micro ops) committed (Count)
system.atomicCpu3.exec_context.thread_0.numIntAluAccesses            0                       # Number of integer alu accesses (Count)
system.atomicCpu3.exec_context.thread_0.numFpAluAccesses            0                       # Number of float alu accesses (Count)
system.atomicCpu3.exec_context.thread_0.numVecAluAccesses            0                       # Number of vector alu accesses (Count)
system.atomicCpu3.exec_context.thread_0.numCallsReturns            0                       # Number of times a function call or return occured (Count)
system.atomicCpu3.exec_context.thread_0.numCondCtrlInsts            0                       # Number of instructions that are conditional controls (Count)
system.atomicCpu3.exec_context.thread_0.numIntInsts            0                       # Number of integer instructions (Count)
system.atomicCpu3.exec_context.thread_0.numFpInsts            0                       # Number of float instructions (Count)
system.atomicCpu3.exec_context.thread_0.numVecInsts            0                       # Number of vector instructions (Count)
system.atomicCpu3.exec_context.thread_0.numIntRegReads            0                       # Number of times the integer registers were read (Count)
system.atomicCpu3.exec_context.thread_0.numIntRegWrites            0                       # Number of times the integer registers were written (Count)
system.atomicCpu3.exec_context.thread_0.numFpRegReads            0                       # Number of times the floating registers were read (Count)
system.atomicCpu3.exec_context.thread_0.numFpRegWrites            0                       # Number of times the floating registers were written (Count)
system.atomicCpu3.exec_context.thread_0.numVecRegReads            0                       # Number of times the vector registers were read (Count)
system.atomicCpu3.exec_context.thread_0.numVecRegWrites            0                       # Number of times the vector registers were written (Count)
system.atomicCpu3.exec_context.thread_0.numVecPredRegReads            0                       # Number of times the predicate registers were read (Count)
system.atomicCpu3.exec_context.thread_0.numVecPredRegWrites            0                       # Number of times the predicate registers were written (Count)
system.atomicCpu3.exec_context.thread_0.numMiscRegReads            0                       # Number of times the Misc registers were read (Count)
system.atomicCpu3.exec_context.thread_0.numMiscRegWrites            0                       # Number of times the Misc registers were written (Count)
system.atomicCpu3.exec_context.thread_0.numMemRefs            0                       # Number of memory refs (Count)
system.atomicCpu3.exec_context.thread_0.numLoadInsts            0                       # Number of load instructions (Count)
system.atomicCpu3.exec_context.thread_0.numStoreInsts            0                       # Number of store instructions (Count)
system.atomicCpu3.exec_context.thread_0.numIdleCycles            0                       # Number of idle cycles (Cycle)
system.atomicCpu3.exec_context.thread_0.numBusyCycles            0                       # Number of busy cycles (Cycle)
system.atomicCpu3.exec_context.thread_0.notIdleFraction            0                       # Percentage of non-idle cycles (Ratio)
system.atomicCpu3.exec_context.thread_0.idleFraction            1                       # Percentage of idle cycles (Ratio)
system.atomicCpu3.exec_context.thread_0.statExecutedInstType::No_OpClass            0                       # Class of executed instruction. (Count)
system.atomicCpu3.exec_context.thread_0.statExecutedInstType::IntAlu            0                       # Class of executed instruction. (Count)
system.atomicCpu3.exec_context.thread_0.statExecutedInstType::IntMult            0                       # Class of executed instruction. (Count)
system.atomicCpu3.exec_context.thread_0.statExecutedInstType::IntDiv            0                       # Class of executed instruction. (Count)
system.atomicCpu3.exec_context.thread_0.statExecutedInstType::FloatAdd            0                       # Class of executed instruction. (Count)
system.atomicCpu3.exec_context.thread_0.statExecutedInstType::FloatCmp            0                       # Class of executed instruction. (Count)
system.atomicCpu3.exec_context.thread_0.statExecutedInstType::FloatCvt            0                       # Class of executed instruction. (Count)
system.atomicCpu3.exec_context.thread_0.statExecutedInstType::FloatMult            0                       # Class of executed instruction. (Count)
system.atomicCpu3.exec_context.thread_0.statExecutedInstType::FloatMultAcc            0                       # Class of executed instruction. (Count)
system.atomicCpu3.exec_context.thread_0.statExecutedInstType::FloatDiv            0                       # Class of executed instruction. (Count)
system.atomicCpu3.exec_context.thread_0.statExecutedInstType::FloatMisc            0                       # Class of executed instruction. (Count)
system.atomicCpu3.exec_context.thread_0.statExecutedInstType::FloatSqrt            0                       # Class of executed instruction. (Count)
system.atomicCpu3.exec_context.thread_0.statExecutedInstType::SimdAdd            0                       # Class of executed instruction. (Count)
system.atomicCpu3.exec_context.thread_0.statExecutedInstType::SimdAddAcc            0                       # Class of executed instruction. (Count)
system.atomicCpu3.exec_context.thread_0.statExecutedInstType::SimdAlu            0                       # Class of executed instruction. (Count)
system.atomicCpu3.exec_context.thread_0.statExecutedInstType::SimdCmp            0                       # Class of executed instruction. (Count)
system.atomicCpu3.exec_context.thread_0.statExecutedInstType::SimdCvt            0                       # Class of executed instruction. (Count)
system.atomicCpu3.exec_context.thread_0.statExecutedInstType::SimdMisc            0                       # Class of executed instruction. (Count)
system.atomicCpu3.exec_context.thread_0.statExecutedInstType::SimdMult            0                       # Class of executed instruction. (Count)
system.atomicCpu3.exec_context.thread_0.statExecutedInstType::SimdMultAcc            0                       # Class of executed instruction. (Count)
system.atomicCpu3.exec_context.thread_0.statExecutedInstType::SimdShift            0                       # Class of executed instruction. (Count)
system.atomicCpu3.exec_context.thread_0.statExecutedInstType::SimdShiftAcc            0                       # Class of executed instruction. (Count)
system.atomicCpu3.exec_context.thread_0.statExecutedInstType::SimdDiv            0                       # Class of executed instruction. (Count)
system.atomicCpu3.exec_context.thread_0.statExecutedInstType::SimdSqrt            0                       # Class of executed instruction. (Count)
system.atomicCpu3.exec_context.thread_0.statExecutedInstType::SimdFloatAdd            0                       # Class of executed instruction. (Count)
system.atomicCpu3.exec_context.thread_0.statExecutedInstType::SimdFloatAlu            0                       # Class of executed instruction. (Count)
system.atomicCpu3.exec_context.thread_0.statExecutedInstType::SimdFloatCmp            0                       # Class of executed instruction. (Count)
system.atomicCpu3.exec_context.thread_0.statExecutedInstType::SimdFloatCvt            0                       # Class of executed instruction. (Count)
system.atomicCpu3.exec_context.thread_0.statExecutedInstType::SimdFloatDiv            0                       # Class of executed instruction. (Count)
system.atomicCpu3.exec_context.thread_0.statExecutedInstType::SimdFloatMisc            0                       # Class of executed instruction. (Count)
system.atomicCpu3.exec_context.thread_0.statExecutedInstType::SimdFloatMult            0                       # Class of executed instruction. (Count)
system.atomicCpu3.exec_context.thread_0.statExecutedInstType::SimdFloatMultAcc            0                       # Class of executed instruction. (Count)
system.atomicCpu3.exec_context.thread_0.statExecutedInstType::SimdFloatSqrt            0                       # Class of executed instruction. (Count)
system.atomicCpu3.exec_context.thread_0.statExecutedInstType::SimdReduceAdd            0                       # Class of executed instruction. (Count)
system.atomicCpu3.exec_context.thread_0.statExecutedInstType::SimdReduceAlu            0                       # Class of executed instruction. (Count)
system.atomicCpu3.exec_context.thread_0.statExecutedInstType::SimdReduceCmp            0                       # Class of executed instruction. (Count)
system.atomicCpu3.exec_context.thread_0.statExecutedInstType::SimdFloatReduceAdd            0                       # Class of executed instruction. (Count)
system.atomicCpu3.exec_context.thread_0.statExecutedInstType::SimdFloatReduceCmp            0                       # Class of executed instruction. (Count)
system.atomicCpu3.exec_context.thread_0.statExecutedInstType::SimdAes            0                       # Class of executed instruction. (Count)
system.atomicCpu3.exec_context.thread_0.statExecutedInstType::SimdAesMix            0                       # Class of executed instruction. (Count)
system.atomicCpu3.exec_context.thread_0.statExecutedInstType::SimdSha1Hash            0                       # Class of executed instruction. (Count)
system.atomicCpu3.exec_context.thread_0.statExecutedInstType::SimdSha1Hash2            0                       # Class of executed instruction. (Count)
system.atomicCpu3.exec_context.thread_0.statExecutedInstType::SimdSha256Hash            0                       # Class of executed instruction. (Count)
system.atomicCpu3.exec_context.thread_0.statExecutedInstType::SimdSha256Hash2            0                       # Class of executed instruction. (Count)
system.atomicCpu3.exec_context.thread_0.statExecutedInstType::SimdShaSigma2            0                       # Class of executed instruction. (Count)
system.atomicCpu3.exec_context.thread_0.statExecutedInstType::SimdShaSigma3            0                       # Class of executed instruction. (Count)
system.atomicCpu3.exec_context.thread_0.statExecutedInstType::SimdPredAlu            0                       # Class of executed instruction. (Count)
system.atomicCpu3.exec_context.thread_0.statExecutedInstType::MemRead            0                       # Class of executed instruction. (Count)
system.atomicCpu3.exec_context.thread_0.statExecutedInstType::MemWrite            0                       # Class of executed instruction. (Count)
system.atomicCpu3.exec_context.thread_0.statExecutedInstType::FloatMemRead            0                       # Class of executed instruction. (Count)
system.atomicCpu3.exec_context.thread_0.statExecutedInstType::FloatMemWrite            0                       # Class of executed instruction. (Count)
system.atomicCpu3.exec_context.thread_0.statExecutedInstType::IprAccess            0                       # Class of executed instruction. (Count)
system.atomicCpu3.exec_context.thread_0.statExecutedInstType::InstPrefetch            0                       # Class of executed instruction. (Count)
system.atomicCpu3.exec_context.thread_0.statExecutedInstType::total            0                       # Class of executed instruction. (Count)
system.atomicCpu3.mmu.dtb.rdAccesses                0                       # TLB accesses on read requests (Count)
system.atomicCpu3.mmu.dtb.wrAccesses                0                       # TLB accesses on write requests (Count)
system.atomicCpu3.mmu.dtb.rdMisses                  0                       # TLB misses on read requests (Count)
system.atomicCpu3.mmu.dtb.wrMisses                  0                       # TLB misses on write requests (Count)
system.atomicCpu3.mmu.dtb.walker.power_state.pwrStateResidencyTicks::UNDEFINED 19316450185400                       # Cumulative time (in ticks) in various power states (Tick)
system.atomicCpu3.mmu.itb.rdAccesses                0                       # TLB accesses on read requests (Count)
system.atomicCpu3.mmu.itb.wrAccesses                0                       # TLB accesses on write requests (Count)
system.atomicCpu3.mmu.itb.rdMisses                  0                       # TLB misses on read requests (Count)
system.atomicCpu3.mmu.itb.wrMisses                  0                       # TLB misses on write requests (Count)
system.atomicCpu3.mmu.itb.walker.power_state.pwrStateResidencyTicks::UNDEFINED 19316450185400                       # Cumulative time (in ticks) in various power states (Tick)
system.atomicCpu3.power_state.pwrStateResidencyTicks::OFF 19316450185400                       # Cumulative time (in ticks) in various power states (Tick)
system.atomicCpu3.thread_0.numInsts                 0                       # Number of Instructions committed (Count)
system.atomicCpu3.thread_0.numOps                   0                       # Number of Ops committed (Count)
system.atomicCpu3.thread_0.numMemRefs               0                       # Number of Memory References (Count)
system.atomicCpu4.numCycles                         0                       # Number of cpu cycles simulated (Cycle)
system.atomicCpu4.numWorkItemsStarted               0                       # Number of work items this cpu started (Count)
system.atomicCpu4.numWorkItemsCompleted             0                       # Number of work items this cpu completed (Count)
system.atomicCpu4.exec_context.thread_0.numInsts            0                       # Number of instructions committed (Count)
system.atomicCpu4.exec_context.thread_0.numOps            0                       # Number of ops (including micro ops) committed (Count)
system.atomicCpu4.exec_context.thread_0.numIntAluAccesses            0                       # Number of integer alu accesses (Count)
system.atomicCpu4.exec_context.thread_0.numFpAluAccesses            0                       # Number of float alu accesses (Count)
system.atomicCpu4.exec_context.thread_0.numVecAluAccesses            0                       # Number of vector alu accesses (Count)
system.atomicCpu4.exec_context.thread_0.numCallsReturns            0                       # Number of times a function call or return occured (Count)
system.atomicCpu4.exec_context.thread_0.numCondCtrlInsts            0                       # Number of instructions that are conditional controls (Count)
system.atomicCpu4.exec_context.thread_0.numIntInsts            0                       # Number of integer instructions (Count)
system.atomicCpu4.exec_context.thread_0.numFpInsts            0                       # Number of float instructions (Count)
system.atomicCpu4.exec_context.thread_0.numVecInsts            0                       # Number of vector instructions (Count)
system.atomicCpu4.exec_context.thread_0.numIntRegReads            0                       # Number of times the integer registers were read (Count)
system.atomicCpu4.exec_context.thread_0.numIntRegWrites            0                       # Number of times the integer registers were written (Count)
system.atomicCpu4.exec_context.thread_0.numFpRegReads            0                       # Number of times the floating registers were read (Count)
system.atomicCpu4.exec_context.thread_0.numFpRegWrites            0                       # Number of times the floating registers were written (Count)
system.atomicCpu4.exec_context.thread_0.numVecRegReads            0                       # Number of times the vector registers were read (Count)
system.atomicCpu4.exec_context.thread_0.numVecRegWrites            0                       # Number of times the vector registers were written (Count)
system.atomicCpu4.exec_context.thread_0.numVecPredRegReads            0                       # Number of times the predicate registers were read (Count)
system.atomicCpu4.exec_context.thread_0.numVecPredRegWrites            0                       # Number of times the predicate registers were written (Count)
system.atomicCpu4.exec_context.thread_0.numMiscRegReads            0                       # Number of times the Misc registers were read (Count)
system.atomicCpu4.exec_context.thread_0.numMiscRegWrites            0                       # Number of times the Misc registers were written (Count)
system.atomicCpu4.exec_context.thread_0.numMemRefs            0                       # Number of memory refs (Count)
system.atomicCpu4.exec_context.thread_0.numLoadInsts            0                       # Number of load instructions (Count)
system.atomicCpu4.exec_context.thread_0.numStoreInsts            0                       # Number of store instructions (Count)
system.atomicCpu4.exec_context.thread_0.numIdleCycles            0                       # Number of idle cycles (Cycle)
system.atomicCpu4.exec_context.thread_0.numBusyCycles            0                       # Number of busy cycles (Cycle)
system.atomicCpu4.exec_context.thread_0.notIdleFraction            0                       # Percentage of non-idle cycles (Ratio)
system.atomicCpu4.exec_context.thread_0.idleFraction            1                       # Percentage of idle cycles (Ratio)
system.atomicCpu4.exec_context.thread_0.statExecutedInstType::No_OpClass            0                       # Class of executed instruction. (Count)
system.atomicCpu4.exec_context.thread_0.statExecutedInstType::IntAlu            0                       # Class of executed instruction. (Count)
system.atomicCpu4.exec_context.thread_0.statExecutedInstType::IntMult            0                       # Class of executed instruction. (Count)
system.atomicCpu4.exec_context.thread_0.statExecutedInstType::IntDiv            0                       # Class of executed instruction. (Count)
system.atomicCpu4.exec_context.thread_0.statExecutedInstType::FloatAdd            0                       # Class of executed instruction. (Count)
system.atomicCpu4.exec_context.thread_0.statExecutedInstType::FloatCmp            0                       # Class of executed instruction. (Count)
system.atomicCpu4.exec_context.thread_0.statExecutedInstType::FloatCvt            0                       # Class of executed instruction. (Count)
system.atomicCpu4.exec_context.thread_0.statExecutedInstType::FloatMult            0                       # Class of executed instruction. (Count)
system.atomicCpu4.exec_context.thread_0.statExecutedInstType::FloatMultAcc            0                       # Class of executed instruction. (Count)
system.atomicCpu4.exec_context.thread_0.statExecutedInstType::FloatDiv            0                       # Class of executed instruction. (Count)
system.atomicCpu4.exec_context.thread_0.statExecutedInstType::FloatMisc            0                       # Class of executed instruction. (Count)
system.atomicCpu4.exec_context.thread_0.statExecutedInstType::FloatSqrt            0                       # Class of executed instruction. (Count)
system.atomicCpu4.exec_context.thread_0.statExecutedInstType::SimdAdd            0                       # Class of executed instruction. (Count)
system.atomicCpu4.exec_context.thread_0.statExecutedInstType::SimdAddAcc            0                       # Class of executed instruction. (Count)
system.atomicCpu4.exec_context.thread_0.statExecutedInstType::SimdAlu            0                       # Class of executed instruction. (Count)
system.atomicCpu4.exec_context.thread_0.statExecutedInstType::SimdCmp            0                       # Class of executed instruction. (Count)
system.atomicCpu4.exec_context.thread_0.statExecutedInstType::SimdCvt            0                       # Class of executed instruction. (Count)
system.atomicCpu4.exec_context.thread_0.statExecutedInstType::SimdMisc            0                       # Class of executed instruction. (Count)
system.atomicCpu4.exec_context.thread_0.statExecutedInstType::SimdMult            0                       # Class of executed instruction. (Count)
system.atomicCpu4.exec_context.thread_0.statExecutedInstType::SimdMultAcc            0                       # Class of executed instruction. (Count)
system.atomicCpu4.exec_context.thread_0.statExecutedInstType::SimdShift            0                       # Class of executed instruction. (Count)
system.atomicCpu4.exec_context.thread_0.statExecutedInstType::SimdShiftAcc            0                       # Class of executed instruction. (Count)
system.atomicCpu4.exec_context.thread_0.statExecutedInstType::SimdDiv            0                       # Class of executed instruction. (Count)
system.atomicCpu4.exec_context.thread_0.statExecutedInstType::SimdSqrt            0                       # Class of executed instruction. (Count)
system.atomicCpu4.exec_context.thread_0.statExecutedInstType::SimdFloatAdd            0                       # Class of executed instruction. (Count)
system.atomicCpu4.exec_context.thread_0.statExecutedInstType::SimdFloatAlu            0                       # Class of executed instruction. (Count)
system.atomicCpu4.exec_context.thread_0.statExecutedInstType::SimdFloatCmp            0                       # Class of executed instruction. (Count)
system.atomicCpu4.exec_context.thread_0.statExecutedInstType::SimdFloatCvt            0                       # Class of executed instruction. (Count)
system.atomicCpu4.exec_context.thread_0.statExecutedInstType::SimdFloatDiv            0                       # Class of executed instruction. (Count)
system.atomicCpu4.exec_context.thread_0.statExecutedInstType::SimdFloatMisc            0                       # Class of executed instruction. (Count)
system.atomicCpu4.exec_context.thread_0.statExecutedInstType::SimdFloatMult            0                       # Class of executed instruction. (Count)
system.atomicCpu4.exec_context.thread_0.statExecutedInstType::SimdFloatMultAcc            0                       # Class of executed instruction. (Count)
system.atomicCpu4.exec_context.thread_0.statExecutedInstType::SimdFloatSqrt            0                       # Class of executed instruction. (Count)
system.atomicCpu4.exec_context.thread_0.statExecutedInstType::SimdReduceAdd            0                       # Class of executed instruction. (Count)
system.atomicCpu4.exec_context.thread_0.statExecutedInstType::SimdReduceAlu            0                       # Class of executed instruction. (Count)
system.atomicCpu4.exec_context.thread_0.statExecutedInstType::SimdReduceCmp            0                       # Class of executed instruction. (Count)
system.atomicCpu4.exec_context.thread_0.statExecutedInstType::SimdFloatReduceAdd            0                       # Class of executed instruction. (Count)
system.atomicCpu4.exec_context.thread_0.statExecutedInstType::SimdFloatReduceCmp            0                       # Class of executed instruction. (Count)
system.atomicCpu4.exec_context.thread_0.statExecutedInstType::SimdAes            0                       # Class of executed instruction. (Count)
system.atomicCpu4.exec_context.thread_0.statExecutedInstType::SimdAesMix            0                       # Class of executed instruction. (Count)
system.atomicCpu4.exec_context.thread_0.statExecutedInstType::SimdSha1Hash            0                       # Class of executed instruction. (Count)
system.atomicCpu4.exec_context.thread_0.statExecutedInstType::SimdSha1Hash2            0                       # Class of executed instruction. (Count)
system.atomicCpu4.exec_context.thread_0.statExecutedInstType::SimdSha256Hash            0                       # Class of executed instruction. (Count)
system.atomicCpu4.exec_context.thread_0.statExecutedInstType::SimdSha256Hash2            0                       # Class of executed instruction. (Count)
system.atomicCpu4.exec_context.thread_0.statExecutedInstType::SimdShaSigma2            0                       # Class of executed instruction. (Count)
system.atomicCpu4.exec_context.thread_0.statExecutedInstType::SimdShaSigma3            0                       # Class of executed instruction. (Count)
system.atomicCpu4.exec_context.thread_0.statExecutedInstType::SimdPredAlu            0                       # Class of executed instruction. (Count)
system.atomicCpu4.exec_context.thread_0.statExecutedInstType::MemRead            0                       # Class of executed instruction. (Count)
system.atomicCpu4.exec_context.thread_0.statExecutedInstType::MemWrite            0                       # Class of executed instruction. (Count)
system.atomicCpu4.exec_context.thread_0.statExecutedInstType::FloatMemRead            0                       # Class of executed instruction. (Count)
system.atomicCpu4.exec_context.thread_0.statExecutedInstType::FloatMemWrite            0                       # Class of executed instruction. (Count)
system.atomicCpu4.exec_context.thread_0.statExecutedInstType::IprAccess            0                       # Class of executed instruction. (Count)
system.atomicCpu4.exec_context.thread_0.statExecutedInstType::InstPrefetch            0                       # Class of executed instruction. (Count)
system.atomicCpu4.exec_context.thread_0.statExecutedInstType::total            0                       # Class of executed instruction. (Count)
system.atomicCpu4.mmu.dtb.rdAccesses                0                       # TLB accesses on read requests (Count)
system.atomicCpu4.mmu.dtb.wrAccesses                0                       # TLB accesses on write requests (Count)
system.atomicCpu4.mmu.dtb.rdMisses                  0                       # TLB misses on read requests (Count)
system.atomicCpu4.mmu.dtb.wrMisses                  0                       # TLB misses on write requests (Count)
system.atomicCpu4.mmu.dtb.walker.power_state.pwrStateResidencyTicks::UNDEFINED 19316450185400                       # Cumulative time (in ticks) in various power states (Tick)
system.atomicCpu4.mmu.itb.rdAccesses                0                       # TLB accesses on read requests (Count)
system.atomicCpu4.mmu.itb.wrAccesses                0                       # TLB accesses on write requests (Count)
system.atomicCpu4.mmu.itb.rdMisses                  0                       # TLB misses on read requests (Count)
system.atomicCpu4.mmu.itb.wrMisses                  0                       # TLB misses on write requests (Count)
system.atomicCpu4.mmu.itb.walker.power_state.pwrStateResidencyTicks::UNDEFINED 19316450185400                       # Cumulative time (in ticks) in various power states (Tick)
system.atomicCpu4.power_state.pwrStateResidencyTicks::OFF 19316450185400                       # Cumulative time (in ticks) in various power states (Tick)
system.atomicCpu4.thread_0.numInsts                 0                       # Number of Instructions committed (Count)
system.atomicCpu4.thread_0.numOps                   0                       # Number of Ops committed (Count)
system.atomicCpu4.thread_0.numMemRefs               0                       # Number of Memory References (Count)
system.atomicCpu5.numCycles                         0                       # Number of cpu cycles simulated (Cycle)
system.atomicCpu5.numWorkItemsStarted               0                       # Number of work items this cpu started (Count)
system.atomicCpu5.numWorkItemsCompleted             0                       # Number of work items this cpu completed (Count)
system.atomicCpu5.exec_context.thread_0.numInsts            0                       # Number of instructions committed (Count)
system.atomicCpu5.exec_context.thread_0.numOps            0                       # Number of ops (including micro ops) committed (Count)
system.atomicCpu5.exec_context.thread_0.numIntAluAccesses            0                       # Number of integer alu accesses (Count)
system.atomicCpu5.exec_context.thread_0.numFpAluAccesses            0                       # Number of float alu accesses (Count)
system.atomicCpu5.exec_context.thread_0.numVecAluAccesses            0                       # Number of vector alu accesses (Count)
system.atomicCpu5.exec_context.thread_0.numCallsReturns            0                       # Number of times a function call or return occured (Count)
system.atomicCpu5.exec_context.thread_0.numCondCtrlInsts            0                       # Number of instructions that are conditional controls (Count)
system.atomicCpu5.exec_context.thread_0.numIntInsts            0                       # Number of integer instructions (Count)
system.atomicCpu5.exec_context.thread_0.numFpInsts            0                       # Number of float instructions (Count)
system.atomicCpu5.exec_context.thread_0.numVecInsts            0                       # Number of vector instructions (Count)
system.atomicCpu5.exec_context.thread_0.numIntRegReads            0                       # Number of times the integer registers were read (Count)
system.atomicCpu5.exec_context.thread_0.numIntRegWrites            0                       # Number of times the integer registers were written (Count)
system.atomicCpu5.exec_context.thread_0.numFpRegReads            0                       # Number of times the floating registers were read (Count)
system.atomicCpu5.exec_context.thread_0.numFpRegWrites            0                       # Number of times the floating registers were written (Count)
system.atomicCpu5.exec_context.thread_0.numVecRegReads            0                       # Number of times the vector registers were read (Count)
system.atomicCpu5.exec_context.thread_0.numVecRegWrites            0                       # Number of times the vector registers were written (Count)
system.atomicCpu5.exec_context.thread_0.numVecPredRegReads            0                       # Number of times the predicate registers were read (Count)
system.atomicCpu5.exec_context.thread_0.numVecPredRegWrites            0                       # Number of times the predicate registers were written (Count)
system.atomicCpu5.exec_context.thread_0.numMiscRegReads            0                       # Number of times the Misc registers were read (Count)
system.atomicCpu5.exec_context.thread_0.numMiscRegWrites            0                       # Number of times the Misc registers were written (Count)
system.atomicCpu5.exec_context.thread_0.numMemRefs            0                       # Number of memory refs (Count)
system.atomicCpu5.exec_context.thread_0.numLoadInsts            0                       # Number of load instructions (Count)
system.atomicCpu5.exec_context.thread_0.numStoreInsts            0                       # Number of store instructions (Count)
system.atomicCpu5.exec_context.thread_0.numIdleCycles            0                       # Number of idle cycles (Cycle)
system.atomicCpu5.exec_context.thread_0.numBusyCycles            0                       # Number of busy cycles (Cycle)
system.atomicCpu5.exec_context.thread_0.notIdleFraction            0                       # Percentage of non-idle cycles (Ratio)
system.atomicCpu5.exec_context.thread_0.idleFraction            1                       # Percentage of idle cycles (Ratio)
system.atomicCpu5.exec_context.thread_0.statExecutedInstType::No_OpClass            0                       # Class of executed instruction. (Count)
system.atomicCpu5.exec_context.thread_0.statExecutedInstType::IntAlu            0                       # Class of executed instruction. (Count)
system.atomicCpu5.exec_context.thread_0.statExecutedInstType::IntMult            0                       # Class of executed instruction. (Count)
system.atomicCpu5.exec_context.thread_0.statExecutedInstType::IntDiv            0                       # Class of executed instruction. (Count)
system.atomicCpu5.exec_context.thread_0.statExecutedInstType::FloatAdd            0                       # Class of executed instruction. (Count)
system.atomicCpu5.exec_context.thread_0.statExecutedInstType::FloatCmp            0                       # Class of executed instruction. (Count)
system.atomicCpu5.exec_context.thread_0.statExecutedInstType::FloatCvt            0                       # Class of executed instruction. (Count)
system.atomicCpu5.exec_context.thread_0.statExecutedInstType::FloatMult            0                       # Class of executed instruction. (Count)
system.atomicCpu5.exec_context.thread_0.statExecutedInstType::FloatMultAcc            0                       # Class of executed instruction. (Count)
system.atomicCpu5.exec_context.thread_0.statExecutedInstType::FloatDiv            0                       # Class of executed instruction. (Count)
system.atomicCpu5.exec_context.thread_0.statExecutedInstType::FloatMisc            0                       # Class of executed instruction. (Count)
system.atomicCpu5.exec_context.thread_0.statExecutedInstType::FloatSqrt            0                       # Class of executed instruction. (Count)
system.atomicCpu5.exec_context.thread_0.statExecutedInstType::SimdAdd            0                       # Class of executed instruction. (Count)
system.atomicCpu5.exec_context.thread_0.statExecutedInstType::SimdAddAcc            0                       # Class of executed instruction. (Count)
system.atomicCpu5.exec_context.thread_0.statExecutedInstType::SimdAlu            0                       # Class of executed instruction. (Count)
system.atomicCpu5.exec_context.thread_0.statExecutedInstType::SimdCmp            0                       # Class of executed instruction. (Count)
system.atomicCpu5.exec_context.thread_0.statExecutedInstType::SimdCvt            0                       # Class of executed instruction. (Count)
system.atomicCpu5.exec_context.thread_0.statExecutedInstType::SimdMisc            0                       # Class of executed instruction. (Count)
system.atomicCpu5.exec_context.thread_0.statExecutedInstType::SimdMult            0                       # Class of executed instruction. (Count)
system.atomicCpu5.exec_context.thread_0.statExecutedInstType::SimdMultAcc            0                       # Class of executed instruction. (Count)
system.atomicCpu5.exec_context.thread_0.statExecutedInstType::SimdShift            0                       # Class of executed instruction. (Count)
system.atomicCpu5.exec_context.thread_0.statExecutedInstType::SimdShiftAcc            0                       # Class of executed instruction. (Count)
system.atomicCpu5.exec_context.thread_0.statExecutedInstType::SimdDiv            0                       # Class of executed instruction. (Count)
system.atomicCpu5.exec_context.thread_0.statExecutedInstType::SimdSqrt            0                       # Class of executed instruction. (Count)
system.atomicCpu5.exec_context.thread_0.statExecutedInstType::SimdFloatAdd            0                       # Class of executed instruction. (Count)
system.atomicCpu5.exec_context.thread_0.statExecutedInstType::SimdFloatAlu            0                       # Class of executed instruction. (Count)
system.atomicCpu5.exec_context.thread_0.statExecutedInstType::SimdFloatCmp            0                       # Class of executed instruction. (Count)
system.atomicCpu5.exec_context.thread_0.statExecutedInstType::SimdFloatCvt            0                       # Class of executed instruction. (Count)
system.atomicCpu5.exec_context.thread_0.statExecutedInstType::SimdFloatDiv            0                       # Class of executed instruction. (Count)
system.atomicCpu5.exec_context.thread_0.statExecutedInstType::SimdFloatMisc            0                       # Class of executed instruction. (Count)
system.atomicCpu5.exec_context.thread_0.statExecutedInstType::SimdFloatMult            0                       # Class of executed instruction. (Count)
[...]
system.timingCpu6.exec_context.thread_0.statExecutedInstType::SimdFloatMultAcc            0      0.00%     74.24% # Class of executed instruction. (Count)
system.timingCpu6.exec_context.thread_0.statExecutedInstType::SimdFloatSqrt       256976      1.92%     76.16% # Class of executed instruction. (Count)
system.timingCpu6.exec_context.thread_0.statExecutedInstType::SimdReduceAdd            0      0.00%     76.16% # Class of executed instruction. (Count)
system.timingCpu6.exec_context.thread_0.statExecutedInstType::SimdReduceAlu            0      0.00%     76.16% # Class of executed instruction. (Count)
system.timingCpu6.exec_context.thread_0.statExecutedInstType::SimdReduceCmp            0      0.00%     76.16% # Class of executed instruction. (Count)
system.timingCpu6.exec_context.thread_0.statExecutedInstType::SimdFloatReduceAdd            0      0.00%     76.16% # Class of executed instruction. (Count)
system.timingCpu6.exec_context.thread_0.statExecutedInstType::SimdFloatReduceCmp            0      0.00%     76.16% # Class of executed instruction. (Count)
system.timingCpu6.exec_context.thread_0.statExecutedInstType::SimdAes            0      0.00%     76.16% # Class of executed instruction. (Count)
system.timingCpu6.exec_context.thread_0.statExecutedInstType::SimdAesMix            0      0.00%     76.16% # Class of executed instruction. (Count)
system.timingCpu6.exec_context.thread_0.statExecutedInstType::SimdSha1Hash            0      0.00%     76.16% # Class of executed instruction. (Count)
system.timingCpu6.exec_context.thread_0.statExecutedInstType::SimdSha1Hash2            0      0.00%     76.16% # Class of executed instruction. (Count)
system.timingCpu6.exec_context.thread_0.statExecutedInstType::SimdSha256Hash            0      0.00%     76.16% # Class of executed instruction. (Count)
system.timingCpu6.exec_context.thread_0.statExecutedInstType::SimdSha256Hash2            0      0.00%     76.16% # Class of executed instruction. (Count)
system.timingCpu6.exec_context.thread_0.statExecutedInstType::SimdShaSigma2            0      0.00%     76.16% # Class of executed instruction. (Count)
system.timingCpu6.exec_context.thread_0.statExecutedInstType::SimdShaSigma3            0      0.00%     76.16% # Class of executed instruction. (Count)
system.timingCpu6.exec_context.thread_0.statExecutedInstType::SimdPredAlu            0      0.00%     76.16% # Class of executed instruction. (Count)
system.timingCpu6.exec_context.thread_0.statExecutedInstType::MemRead        70978      0.53%     76.69% # Class of executed instruction. (Count)
system.timingCpu6.exec_context.thread_0.statExecutedInstType::MemWrite        34110      0.26%     76.95% # Class of executed instruction. (Count)
system.timingCpu6.exec_context.thread_0.statExecutedInstType::FloatMemRead      1284879      9.61%     86.55% # Class of executed instruction. (Count)
system.timingCpu6.exec_context.thread_0.statExecutedInstType::FloatMemWrite      1798832     13.45%    100.00% # Class of executed instruction. (Count)
system.timingCpu6.exec_context.thread_0.statExecutedInstType::IprAccess            0      0.00%    100.00% # Class of executed instruction. (Count)
system.timingCpu6.exec_context.thread_0.statExecutedInstType::InstPrefetch            0      0.00%    100.00% # Class of executed instruction. (Count)
system.timingCpu6.exec_context.thread_0.statExecutedInstType::total     13376470                       # Class of executed instruction. (Count)
system.timingCpu6.mmu.dtb.rdAccesses          1357863                       # TLB accesses on read requests (Count)
system.timingCpu6.mmu.dtb.wrAccesses          1833856                       # TLB accesses on write requests (Count)
system.timingCpu6.mmu.dtb.rdMisses               2005                       # TLB misses on read requests (Count)
system.timingCpu6.mmu.dtb.wrMisses                914                       # TLB misses on write requests (Count)
system.timingCpu6.mmu.dtb.walker.power_state.pwrStateResidencyTicks::UNDEFINED 19316450185400                       # Cumulative time (in ticks) in various power states (Tick)
system.timingCpu6.mmu.itb.rdAccesses                0                       # TLB accesses on read requests (Count)
system.timingCpu6.mmu.itb.wrAccesses         13411758                       # TLB accesses on write requests (Count)
system.timingCpu6.mmu.itb.rdMisses                  0                       # TLB misses on read requests (Count)
system.timingCpu6.mmu.itb.wrMisses                207                       # TLB misses on write requests (Count)
system.timingCpu6.mmu.itb.walker.power_state.pwrStateResidencyTicks::UNDEFINED 19316450185400                       # Cumulative time (in ticks) in various power states (Tick)
system.timingCpu6.power_state.pwrStateResidencyTicks::OFF 19316450185400                       # Cumulative time (in ticks) in various power states (Tick)
system.timingCpu6.thread_0.numInsts                 0                       # Number of Instructions committed (Count)
system.timingCpu6.thread_0.numOps                   0                       # Number of Ops committed (Count)
system.timingCpu6.thread_0.numMemRefs               0                       # Number of Memory References (Count)
system.timingCpu7.numCycles                 499999914                       # Number of cpu cycles simulated (Cycle)
system.timingCpu7.numWorkItemsStarted               0                       # Number of work items this cpu started (Count)
system.timingCpu7.numWorkItemsCompleted             0                       # Number of work items this cpu completed (Count)
system.timingCpu7.exec_context.thread_0.numInsts      9668103                       # Number of instructions committed (Count)
system.timingCpu7.exec_context.thread_0.numOps     13603444                       # Number of ops (including micro ops) committed (Count)
system.timingCpu7.exec_context.thread_0.numIntAluAccesses      5719372                       # Number of integer alu accesses (Count)
system.timingCpu7.exec_context.thread_0.numFpAluAccesses     11011998                       # Number of float alu accesses (Count)
system.timingCpu7.exec_context.thread_0.numVecAluAccesses            0                       # Number of vector alu accesses (Count)
system.timingCpu7.exec_context.thread_0.numCallsReturns        15084                       # Number of times a function call or return occured (Count)
system.timingCpu7.exec_context.thread_0.numCondCtrlInsts       293886                       # Number of instructions that are conditional controls (Count)
system.timingCpu7.exec_context.thread_0.numIntInsts      5719372                       # Number of integer instructions (Count)
system.timingCpu7.exec_context.thread_0.numFpInsts     11011998                       # Number of float instructions (Count)
system.timingCpu7.exec_context.thread_0.numVecInsts            0                       # Number of vector instructions (Count)
system.timingCpu7.exec_context.thread_0.numIntRegReads      5850598                       # Number of times the integer registers were read (Count)
system.timingCpu7.exec_context.thread_0.numIntRegWrites      1936042                       # Number of times the integer registers were written (Count)
system.timingCpu7.exec_context.thread_0.numFpRegReads     19402097                       # Number of times the floating registers were read (Count)
system.timingCpu7.exec_context.thread_0.numFpRegWrites      9176664                       # Number of times the floating registers were written (Count)
system.timingCpu7.exec_context.thread_0.numVecRegReads            0                       # Number of times the vector registers were read (Count)
system.timingCpu7.exec_context.thread_0.numVecRegWrites            0                       # Number of times the vector registers were written (Count)
system.timingCpu7.exec_context.thread_0.numVecPredRegReads            0                       # Number of times the predicate registers were read (Count)
system.timingCpu7.exec_context.thread_0.numVecPredRegWrites            0                       # Number of times the predicate registers were written (Count)
system.timingCpu7.exec_context.thread_0.numCCRegReads      1544966                       # Number of times the CC registers were read (Count)
system.timingCpu7.exec_context.thread_0.numCCRegWrites      1700255                       # Number of times the CC registers were written (Count)
system.timingCpu7.exec_context.thread_0.numMiscRegReads      3890956                       # Number of times the Misc registers were read (Count)
system.timingCpu7.exec_context.thread_0.numMiscRegWrites         3400                       # Number of times the Misc registers were written (Count)
system.timingCpu7.exec_context.thread_0.numMemRefs      3247939                       # Number of memory refs (Count)
system.timingCpu7.exec_context.thread_0.numLoadInsts      1378607                       # Number of load instructions (Count)
system.timingCpu7.exec_context.thread_0.numStoreInsts      1869332                       # Number of store instructions (Count)
system.timingCpu7.exec_context.thread_0.numIdleCycles            0                       # Number of idle cycles (Cycle)
system.timingCpu7.exec_context.thread_0.numBusyCycles    499999914                       # Number of busy cycles (Cycle)
system.timingCpu7.exec_context.thread_0.notIdleFraction            1                       # Percentage of non-idle cycles (Ratio)
system.timingCpu7.exec_context.thread_0.idleFraction            0                       # Percentage of idle cycles (Ratio)
system.timingCpu7.exec_context.thread_0.numBranches       319690                       # Number of branches fetched (Count)
system.timingCpu7.exec_context.thread_0.statExecutedInstType::No_OpClass         2128      0.02%      0.02% # Class of executed instruction. (Count)
system.timingCpu7.exec_context.thread_0.statExecutedInstType::IntAlu      5102751     37.51%     37.53% # Class of executed instruction. (Count)
system.timingCpu7.exec_context.thread_0.statExecutedInstType::IntMult         2241      0.02%     37.54% # Class of executed instruction. (Count)
system.timingCpu7.exec_context.thread_0.statExecutedInstType::IntDiv         4574      0.03%     37.58% # Class of executed instruction. (Count)
system.timingCpu7.exec_context.thread_0.statExecutedInstType::FloatAdd      1048761      7.71%     45.29% # Class of executed instruction. (Count)
system.timingCpu7.exec_context.thread_0.statExecutedInstType::FloatCmp            0      0.00%     45.29% # Class of executed instruction. (Count)
system.timingCpu7.exec_context.thread_0.statExecutedInstType::FloatCvt            0      0.00%     45.29% # Class of executed instruction. (Count)
system.timingCpu7.exec_context.thread_0.statExecutedInstType::FloatMult            0      0.00%     45.29% # Class of executed instruction. (Count)
system.timingCpu7.exec_context.thread_0.statExecutedInstType::FloatMultAcc            0      0.00%     45.29% # Class of executed instruction. (Count)
system.timingCpu7.exec_context.thread_0.statExecutedInstType::FloatDiv            0      0.00%     45.29% # Class of executed instruction. (Count)
system.timingCpu7.exec_context.thread_0.statExecutedInstType::FloatMisc            0      0.00%     45.29% # Class of executed instruction. (Count)
system.timingCpu7.exec_context.thread_0.statExecutedInstType::FloatSqrt            0      0.00%     45.29% # Class of executed instruction. (Count)
system.timingCpu7.exec_context.thread_0.statExecutedInstType::SimdAdd            0      0.00%     45.29% # Class of executed instruction. (Count)
system.timingCpu7.exec_context.thread_0.statExecutedInstType::SimdAddAcc            0      0.00%     45.29% # Class of executed instruction. (Count)
system.timingCpu7.exec_context.thread_0.statExecutedInstType::SimdAlu            0      0.00%     45.29% # Class of executed instruction. (Count)
system.timingCpu7.exec_context.thread_0.statExecutedInstType::SimdCmp            0      0.00%     45.29% # Class of executed instruction. (Count)
system.timingCpu7.exec_context.thread_0.statExecutedInstType::SimdCvt            0      0.00%     45.29% # Class of executed instruction. (Count)
system.timingCpu7.exec_context.thread_0.statExecutedInstType::SimdMisc            0      0.00%     45.29% # Class of executed instruction. (Count)
system.timingCpu7.exec_context.thread_0.statExecutedInstType::SimdMult            0      0.00%     45.29% # Class of executed instruction. (Count)
system.timingCpu7.exec_context.thread_0.statExecutedInstType::SimdMultAcc            0      0.00%     45.29% # Class of executed instruction. (Count)
system.timingCpu7.exec_context.thread_0.statExecutedInstType::SimdShift            0      0.00%     45.29% # Class of executed instruction. (Count)
system.timingCpu7.exec_context.thread_0.statExecutedInstType::SimdShiftAcc            0      0.00%     45.29% # Class of executed instruction. (Count)
system.timingCpu7.exec_context.thread_0.statExecutedInstType::SimdDiv            0      0.00%     45.29% # Class of executed instruction. (Count)
system.timingCpu7.exec_context.thread_0.statExecutedInstType::SimdSqrt            0      0.00%     45.29% # Class of executed instruction. (Count)
system.timingCpu7.exec_context.thread_0.statExecutedInstType::SimdFloatAdd       786572      5.78%     51.07% # Class of executed instruction. (Count)
system.timingCpu7.exec_context.thread_0.statExecutedInstType::SimdFloatAlu            0      0.00%     51.07% # Class of executed instruction. (Count)
system.timingCpu7.exec_context.thread_0.statExecutedInstType::SimdFloatCmp            0      0.00%     51.07% # Class of executed instruction. (Count)
system.timingCpu7.exec_context.thread_0.statExecutedInstType::SimdFloatCvt            0      0.00%     51.07% # Class of executed instruction. (Count)
system.timingCpu7.exec_context.thread_0.statExecutedInstType::SimdFloatDiv       262190      1.93%     53.00% # Class of executed instruction. (Count)
system.timingCpu7.exec_context.thread_0.statExecutedInstType::SimdFloatMisc            0      0.00%     53.00% # Class of executed instruction. (Count)
system.timingCpu7.exec_context.thread_0.statExecutedInstType::SimdFloatMult      2884097     21.20%     74.20% # Class of executed instruction. (Count)
system.timingCpu7.exec_context.thread_0.statExecutedInstType::SimdFloatMultAcc            0      0.00%     74.20% # Class of executed instruction. (Count)
system.timingCpu7.exec_context.thread_0.statExecutedInstType::SimdFloatSqrt       262191      1.93%     76.12% # Class of executed instruction. (Count)
system.timingCpu7.exec_context.thread_0.statExecutedInstType::SimdReduceAdd            0      0.00%     76.12% # Class of executed instruction. (Count)
system.timingCpu7.exec_context.thread_0.statExecutedInstType::SimdReduceAlu            0      0.00%     76.12% # Class of executed instruction. (Count)
system.timingCpu7.exec_context.thread_0.statExecutedInstType::SimdReduceCmp            0      0.00%     76.12% # Class of executed instruction. (Count)
system.timingCpu7.exec_context.thread_0.statExecutedInstType::SimdFloatReduceAdd            0      0.00%     76.12% # Class of executed instruction. (Count)
system.timingCpu7.exec_context.thread_0.statExecutedInstType::SimdFloatReduceCmp            0      0.00%     76.12% # Class of executed instruction. (Count)
system.timingCpu7.exec_context.thread_0.statExecutedInstType::SimdAes            0      0.00%     76.12% # Class of executed instruction. (Count)
system.timingCpu7.exec_context.thread_0.statExecutedInstType::SimdAesMix            0      0.00%     76.12% # Class of executed instruction. (Count)
system.timingCpu7.exec_context.thread_0.statExecutedInstType::SimdSha1Hash            0      0.00%     76.12% # Class of executed instruction. (Count)
system.timingCpu7.exec_context.thread_0.statExecutedInstType::SimdSha1Hash2            0      0.00%     76.12% # Class of executed instruction. (Count)
system.timingCpu7.exec_context.thread_0.statExecutedInstType::SimdSha256Hash            0      0.00%     76.12% # Class of executed instruction. (Count)
system.timingCpu7.exec_context.thread_0.statExecutedInstType::SimdSha256Hash2            0      0.00%     76.12% # Class of executed instruction. (Count)
system.timingCpu7.exec_context.thread_0.statExecutedInstType::SimdShaSigma2            0      0.00%     76.12% # Class of executed instruction. (Count)
system.timingCpu7.exec_context.thread_0.statExecutedInstType::SimdShaSigma3            0      0.00%     76.12% # Class of executed instruction. (Count)
system.timingCpu7.exec_context.thread_0.statExecutedInstType::SimdPredAlu            0      0.00%     76.12% # Class of executed instruction. (Count)
system.timingCpu7.exec_context.thread_0.statExecutedInstType::MemRead        67656      0.50%     76.62% # Class of executed instruction. (Count)
system.timingCpu7.exec_context.thread_0.statExecutedInstType::MemWrite        33998      0.25%     76.87% # Class of executed instruction. (Count)
system.timingCpu7.exec_context.thread_0.statExecutedInstType::FloatMemRead      1310951      9.64%     86.51% # Class of executed instruction. (Count)
system.timingCpu7.exec_context.thread_0.statExecutedInstType::FloatMemWrite      1835334     13.49%    100.00% # Class of executed instruction. (Count)
system.timingCpu7.exec_context.thread_0.statExecutedInstType::IprAccess            0      0.00%    100.00% # Class of executed instruction. (Count)
system.timingCpu7.exec_context.thread_0.statExecutedInstType::InstPrefetch            0      0.00%    100.00% # Class of executed instruction. (Count)
system.timingCpu7.exec_context.thread_0.statExecutedInstType::total     13603444                       # Class of executed instruction. (Count)
system.timingCpu7.mmu.dtb.rdAccesses          1380513                       # TLB accesses on read requests (Count)
system.timingCpu7.mmu.dtb.wrAccesses          1870246                       # TLB accesses on write requests (Count)
system.timingCpu7.mmu.dtb.rdMisses               1905                       # TLB misses on read requests (Count)
system.timingCpu7.mmu.dtb.wrMisses                914                       # TLB misses on write requests (Count)
system.timingCpu7.mmu.dtb.walker.power_state.pwrStateResidencyTicks::UNDEFINED 19316450185400                       # Cumulative time (in ticks) in various power states (Tick)
system.timingCpu7.mmu.itb.rdAccesses                0                       # TLB accesses on read requests (Count)
system.timingCpu7.mmu.itb.wrAccesses         13660753                       # TLB accesses on write requests (Count)
system.timingCpu7.mmu.itb.rdMisses                  0                       # TLB misses on read requests (Count)
system.timingCpu7.mmu.itb.wrMisses                207                       # TLB misses on write requests (Count)
system.timingCpu7.mmu.itb.walker.power_state.pwrStateResidencyTicks::UNDEFINED 19316450185400                       # Cumulative time (in ticks) in various power states (Tick)
system.timingCpu7.power_state.pwrStateResidencyTicks::OFF 19316450185400                       # Cumulative time (in ticks) in various power states (Tick)
system.timingCpu7.thread_0.numInsts                 0                       # Number of Instructions committed (Count)
system.timingCpu7.thread_0.numOps                   0                       # Number of Ops committed (Count)
system.timingCpu7.thread_0.numMemRefs               0                       # Number of Memory References (Count)
system.workload.inst.arm                            0                       # number of arm instructions executed (Count)
system.workload.inst.quiesce                        0                       # number of quiesce instructions executed (Count)

---------- End Simulation Statistics   ----------
