
---------- Begin Simulation Statistics ----------
simSeconds                                          5                       # Number of seconds simulated (Second)
simTicks                                 5000000000000                       # Number of ticks simulated (Tick)
finalTick                                25316768293500                       # Number of ticks from beginning of simulation (restored from checkpoints and never reset) (Tick)
simFreq                                  1000000000000                       # The number of ticks per simulated second ((Tick/Second))
hostSeconds                                  14623.55                       # Real time elapsed on the host (Second)
hostTickRate                                341914264                       # The number of ticks simulated per host second (ticks/s) ((Tick/Second))
hostMemory                                   16085484                       # Number of bytes of host memory used (Byte)
simInsts                                  25629050135                       # Number of instructions simulated (Count)
simOps                                    27245409315                       # Number of ops (including micro ops) simulated (Count)
hostInstRate                                  1752588                       # Simulator instruction rate (inst/s) ((Count/Second))
hostOpRate                                    1863119                       # Simulator op (including micro ops) rate (op/s) ((Count/Second))
system.atomicCpu0.numCycles                         0                       # Number of cpu cycles simulated (Cycle)
system.atomicCpu0.numWorkItemsStarted               0                       # Number of work items this cpu started (Count)
system.atomicCpu0.numWorkItemsCompleted             0                       # Number of work items this cpu completed (Count)
system.atomicCpu0.exec_context.thread_0.numInsts            0                       # Number of instructions committed (Count)
system.atomicCpu0.exec_context.thread_0.numOps            0                       # Number of ops (including micro ops) committed (Count)
system.atomicCpu0.exec_context.thread_0.numIntAluAccesses            0                       # Number of integer alu accesses (Count)
system.atomicCpu0.exec_context.thread_0.numFpAluAccesses            0                       # Number of float alu accesses (Count)
system.atomicCpu0.exec_context.thread_0.numVecAluAccesses            0                       # Number of vector alu accesses (Count)
system.atomicCpu0.exec_context.thread_0.numCallsReturns            0                       # Number of times a function call or return occured (Count)
system.atomicCpu0.exec_context.thread_0.numCondCtrlInsts            0                       # Number of instructions that are conditional controls (Count)
system.atomicCpu0.exec_context.thread_0.numIntInsts            0                       # Number of integer instructions (Count)
system.atomicCpu0.exec_context.thread_0.numFpInsts            0                       # Number of float instructions (Count)
system.atomicCpu0.exec_context.thread_0.numVecInsts            0                       # Number of vector instructions (Count)
system.atomicCpu0.exec_context.thread_0.numIntRegReads            0                       # Number of times the integer registers were read (Count)
system.atomicCpu0.exec_context.thread_0.numIntRegWrites            0                       # Number of times the integer registers were written (Count)
system.atomicCpu0.exec_context.thread_0.numFpRegReads            0                       # Number of times the floating registers were read (Count)
system.atomicCpu0.exec_context.thread_0.numFpRegWrites            0                       # Number of times the floating registers were written (Count)
system.atomicCpu0.exec_context.thread_0.numVecRegReads            0                       # Number of times the vector registers were read (Count)
system.atomicCpu0.exec_context.thread_0.numVecRegWrites            0                       # Number of times the vector registers were written (Count)
system.atomicCpu0.exec_context.thread_0.numVecPredRegReads            0                       # Number of times the predicate registers were read (Count)
system.atomicCpu0.exec_context.thread_0.numVecPredRegWrites            0                       # Number of times the predicate registers were written (Count)
system.atomicCpu0.exec_context.thread_0.numMiscRegReads            0                       # Number of times the Misc registers were read (Count)
system.atomicCpu0.exec_context.thread_0.numMiscRegWrites            0                       # Number of times the Misc registers were written (Count)
system.atomicCpu0.exec_context.thread_0.numMemRefs            0                       # Number of memory refs (Count)
system.atomicCpu0.exec_context.thread_0.numLoadInsts            0                       # Number of load instructions (Count)
system.atomicCpu0.exec_context.thread_0.numStoreInsts            0                       # Number of store instructions (Count)
system.atomicCpu0.exec_context.thread_0.numIdleCycles            0                       # Number of idle cycles (Cycle)
system.atomicCpu0.exec_context.thread_0.numBusyCycles            0                       # Number of busy cycles (Cycle)
system.atomicCpu0.exec_context.thread_0.notIdleFraction            0                       # Percentage of non-idle cycles (Ratio)
system.atomicCpu0.exec_context.thread_0.idleFraction            1                       # Percentage of idle cycles (Ratio)
system.atomicCpu0.exec_context.thread_0.statExecutedInstType::No_OpClass            0                       # Class of executed instruction. (Count)
system.atomicCpu0.exec_context.thread_0.statExecutedInstType::IntAlu            0                       # Class of executed instruction. (Count)
system.atomicCpu0.exec_context.thread_0.statExecutedInstType::IntMult            0                       # Class of executed instruction. (Count)
system.atomicCpu0.exec_context.thread_0.statExecutedInstType::IntDiv            0                       # Class of executed instruction. (Count)
system.atomicCpu0.exec_context.thread_0.statExecutedInstType::FloatAdd            0                       # Class of executed instruction. (Count)
system.atomicCpu0.exec_context.thread_0.statExecutedInstType::FloatCmp            0                       # Class of executed instruction. (Count)
system.atomicCpu0.exec_context.thread_0.statExecutedInstType::FloatCvt            0                       # Class of executed instruction. (Count)
system.atomicCpu0.exec_context.thread_0.statExecutedInstType::FloatMult            0                       # Class of executed instruction. (Count)
system.atomicCpu0.exec_context.thread_0.statExecutedInstType::FloatMultAcc            0                       # Class of executed instruction. (Count)
system.atomicCpu0.exec_context.thread_0.statExecutedInstType::FloatDiv            0                       # Class of executed instruction. (Count)
system.atomicCpu0.exec_context.thread_0.statExecutedInstType::FloatMisc            0                       # Class of executed instruction. (Count)
system.atomicCpu0.exec_context.thread_0.statExecutedInstType::FloatSqrt            0                       # Class of executed instruction. (Count)
system.atomicCpu0.exec_context.thread_0.statExecutedInstType::SimdAdd            0                       # Class of executed instruction. (Count)
system.atomicCpu0.exec_context.thread_0.statExecutedInstType::SimdAddAcc            0                       # Class of executed instruction. (Count)
system.atomicCpu0.exec_context.thread_0.statExecutedInstType::SimdAlu            0                       # Class of executed instruction. (Count)
system.atomicCpu0.exec_context.thread_0.statExecutedInstType::SimdCmp            0                       # Class of executed instruction. (Count)
system.atomicCpu0.exec_context.thread_0.statExecutedInstType::SimdCvt            0                       # Class of executed instruction. (Count)
system.atomicCpu0.exec_context.thread_0.statExecutedInstType::SimdMisc            0                       # Class of executed instruction. (Count)
system.atomicCpu0.exec_context.thread_0.statExecutedInstType::SimdMult            0                       # Class of executed instruction. (Count)
system.atomicCpu0.exec_context.thread_0.statExecutedInstType::SimdMultAcc            0                       # Class of executed instruction. (Count)
system.atomicCpu0.exec_context.thread_0.statExecutedInstType::SimdShift            0                       # Class of executed instruction. (Count)
system.atomicCpu0.exec_context.thread_0.statExecutedInstType::SimdShiftAcc            0                       # Class of executed instruction. (Count)
system.atomicCpu0.exec_context.thread_0.statExecutedInstType::SimdDiv            0                       # Class of executed instruction. (Count)
system.atomicCpu0.exec_context.thread_0.statExecutedInstType::SimdSqrt            0                       # Class of executed instruction. (Count)
system.atomicCpu0.exec_context.thread_0.statExecutedInstType::SimdFloatAdd            0                       # Class of executed instruction. (Count)
system.atomicCpu0.exec_context.thread_0.statExecutedInstType::SimdFloatAlu            0                       # Class of executed instruction. (Count)
system.atomicCpu0.exec_context.thread_0.statExecutedInstType::SimdFloatCmp            0                       # Class of executed instruction. (Count)
system.atomicCpu0.exec_context.thread_0.statExecutedInstType::SimdFloatCvt            0                       # Class of executed instruction. (Count)
system.atomicCpu0.exec_context.thread_0.statExecutedInstType::SimdFloatDiv            0                       # Class of executed instruction. (Count)
system.atomicCpu0.exec_context.thread_0.statExecutedInstType::SimdFloatMisc            0                       # Class of executed instruction. (Count)
system.atomicCpu0.exec_context.thread_0.statExecutedInstType::SimdFloatMult            0                       # Class of executed instruction. (Count)
system.atomicCpu0.exec_context.thread_0.statExecutedInstType::SimdFloatMultAcc            0                       # Class of executed instruction. (Count)
system.atomicCpu0.exec_context.thread_0.statExecutedInstType::SimdFloatSqrt            0                       # Class of executed instruction. (Count)
system.atomicCpu0.exec_context.thread_0.statExecutedInstType::SimdReduceAdd            0                       # Class of executed instruction. (Count)
system.atomicCpu0.exec_context.thread_0.statExecutedInstType::SimdReduceAlu            0                       # Class of executed instruction. (Count)
system.atomicCpu0.exec_context.thread_0.statExecutedInstType::SimdReduceCmp            0                       # Class of executed instruction. (Count)
system.atomicCpu0.exec_context.thread_0.statExecutedInstType::SimdFloatReduceAdd            0                       # Class of executed instruction. (Count)
system.atomicCpu0.exec_context.thread_0.statExecutedInstType::SimdFloatReduceCmp            0                       # Class of executed instruction. (Count)
system.atomicCpu0.exec_context.thread_0.statExecutedInstType::SimdAes            0                       # Class of executed instruction. (Count)
system.atomicCpu0.exec_context.thread_0.statExecutedInstType::SimdAesMix            0                       # Class of executed instruction. (Count)
system.atomicCpu0.exec_context.thread_0.statExecutedInstType::SimdSha1Hash            0                       # Class of executed instruction. (Count)
system.atomicCpu0.exec_context.thread_0.statExecutedInstType::SimdSha1Hash2            0                       # Class of executed instruction. (Count)
system.atomicCpu0.exec_context.thread_0.statExecutedInstType::SimdSha256Hash            0                       # Class of executed instruction. (Count)
system.atomicCpu0.exec_context.thread_0.statExecutedInstType::SimdSha256Hash2            0                       # Class of executed instruction. (Count)
system.atomicCpu0.exec_context.thread_0.statExecutedInstType::SimdShaSigma2            0                       # Class of executed instruction. (Count)
system.atomicCpu0.exec_context.thread_0.statExecutedInstType::SimdShaSigma3            0                       # Class of executed instruction. (Count)
system.atomicCpu0.exec_context.thread_0.statExecutedInstType::SimdPredAlu            0                       # Class of executed instruction. (Count)
system.atomicCpu0.exec_context.thread_0.statExecutedInstType::MemRead            0                       # Class of executed instruction. (Count)
system.atomicCpu0.exec_context.thread_0.statExecutedInstType::MemWrite            0                       # Class of executed instruction. (Count)
system.atomicCpu0.exec_context.thread_0.statExecutedInstType::FloatMemRead            0                       # Class of executed instruction. (Count)
system.atomicCpu0.exec_context.thread_0.statExecutedInstType::FloatMemWrite            0                       # Class of executed instruction. (Count)
system.atomicCpu0.exec_context.thread_0.statExecutedInstType::IprAccess            0                       # Class of executed instruction. (Count)
system.atomicCpu0.exec_context.thread_0.statExecutedInstType::InstPrefetch            0                       # Class of executed instruction. (Count)
system.atomicCpu0.exec_context.thread_0.statExecutedInstType::total            0                       # Class of executed instruction. (Count)
system.atomicCpu0.mmu.dtb.rdAccesses                0                       # TLB accesses on read requests (Count)
system.atomicCpu0.mmu.dtb.wrAccesses                0                       # TLB accesses on write requests (Count)
system.atomicCpu0.mmu.dtb.rdMisses                  0                       # TLB misses on read requests (Count)
system.atomicCpu0.mmu.dtb.wrMisses                  0                       # TLB misses on write requests (Count)
system.atomicCpu0.mmu.dtb.walker.power_state.pwrStateResidencyTicks::UNDEFINED 25316768293500                       # Cumulative time (in ticks) in various power states (Tick)
system.atomicCpu0.mmu.itb.rdAccesses                0                       # TLB accesses on read requests (Count)
system.atomicCpu0.mmu.itb.wrAccesses                0                       # TLB accesses on write requests (Count)
system.atomicCpu0.mmu.itb.rdMisses                  0                       # TLB misses on read requests (Count)
system.atomicCpu0.mmu.itb.wrMisses                  0                       # TLB misses on write requests (Count)
system.atomicCpu0.mmu.itb.walker.power_state.pwrStateResidencyTicks::UNDEFINED 25316768293500                       # Cumulative time (in ticks) in various power states (Tick)
system.atomicCpu0.power_state.pwrStateResidencyTicks::OFF 25316768293500                       # Cumulative time (in ticks) in various power states (Tick)
system.atomicCpu0.thread_0.numInsts                 0                       # Number of Instructions committed (Count)
system.atomicCpu0.thread_0.numOps                   0                       # Number of Ops committed (Count)
system.atomicCpu0.thread_0.numMemRefs               0                       # Number of Memory References (Count)
system.atomicCpu1.numCycles                         0                       # Number of cpu cycles simulated (Cycle)
system.atomicCpu1.numWorkItemsStarted               0                       # Number of work items this cpu started (Count)
system.atomicCpu1.numWorkItemsCompleted             0                       # Number of work items this cpu completed (Count)
system.atomicCpu1.exec_context.thread_0.numInsts            0                       # Number of instructions committed (Count)
system.atomicCpu1.exec_context.thread_0.numOps            0                       # Number of ops (including micro ops) committed (Count)
system.atomicCpu1.exec_context.thread_0.numIntAluAccesses            0                       # Number of integer alu accesses (Count)
system.atomicCpu1.exec_context.thread_0.numFpAluAccesses            0                       # Number of float alu accesses (Count)
system.atomicCpu1.exec_context.thread_0.numVecAluAccesses            0                       # Number of vector alu accesses (Count)
system.atomicCpu1.exec_context.thread_0.numCallsReturns            0                       # Number of times a function call or return occured (Count)
system.atomicCpu1.exec_context.thread_0.numCondCtrlInsts            0                       # Number of instructions that are conditional controls (Count)
system.atomicCpu1.exec_context.thread_0.numIntInsts            0                       # Number of integer instructions (Count)
system.atomicCpu1.exec_context.thread_0.numFpInsts            0                       # Number of float instructions (Count)
system.atomicCpu1.exec_context.thread_0.numVecInsts            0                       # Number of vector instructions (Count)
system.atomicCpu1.exec_context.thread_0.numIntRegReads            0                       # Number of times the integer registers were read (Count)
system.atomicCpu1.exec_context.thread_0.numIntRegWrites            0                       # Number of times the integer registers were written (Count)
system.atomicCpu1.exec_context.thread_0.numFpRegReads            0                       # Number of times the floating registers were read (Count)
system.atomicCpu1.exec_context.thread_0.numFpRegWrites            0                       # Number of times the floating registers were written (Count)
system.atomicCpu1.exec_context.thread_0.numVecRegReads            0                       # Number of times the vector registers were read (Count)
system.atomicCpu1.exec_context.thread_0.numVecRegWrites            0                       # Number of times the vector registers were written (Count)
system.atomicCpu1.exec_context.thread_0.numVecPredRegReads            0                       # Number of times the predicate registers were read (Count)
system.atomicCpu1.exec_context.thread_0.numVecPredRegWrites            0                       # Number of times the predicate registers were written (Count)
system.atomicCpu1.exec_context.thread_0.numMiscRegReads            0                       # Number of times the Misc registers were read (Count)
system.atomicCpu1.exec_context.thread_0.numMiscRegWrites            0                       # Number of times the Misc registers were written (Count)
system.atomicCpu1.exec_context.thread_0.numMemRefs            0                       # Number of memory refs (Count)
system.atomicCpu1.exec_context.thread_0.numLoadInsts            0                       # Number of load instructions (Count)
system.atomicCpu1.exec_context.thread_0.numStoreInsts            0                       # Number of store instructions (Count)
system.atomicCpu1.exec_context.thread_0.numIdleCycles            0                       # Number of idle cycles (Cycle)
system.atomicCpu1.exec_context.thread_0.numBusyCycles            0                       # Number of busy cycles (Cycle)
system.atomicCpu1.exec_context.thread_0.notIdleFraction            0                       # Percentage of non-idle cycles (Ratio)
system.atomicCpu1.exec_context.thread_0.idleFraction            1                       # Percentage of idle cycles (Ratio)
system.atomicCpu1.exec_context.thread_0.statExecutedInstType::No_OpClass            0                       # Class of executed instruction. (Count)
system.atomicCpu1.exec_context.thread_0.statExecutedInstType::IntAlu            0                       # Class of executed instruction. (Count)
system.atomicCpu1.exec_context.thread_0.statExecutedInstType::IntMult            0                       # Class of executed instruction. (Count)
system.atomicCpu1.exec_context.thread_0.statExecutedInstType::IntDiv            0                       # Class of executed instruction. (Count)
system.atomicCpu1.exec_context.thread_0.statExecutedInstType::FloatAdd            0                       # Class of executed instruction. (Count)
system.atomicCpu1.exec_context.thread_0.statExecutedInstType::FloatCmp            0                       # Class of executed instruction. (Count)
system.atomicCpu1.exec_context.thread_0.statExecutedInstType::FloatCvt            0                       # Class of executed instruction. (Count)
system.atomicCpu1.exec_context.thread_0.statExecutedInstType::FloatMult            0                       # Class of executed instruction. (Count)
system.atomicCpu1.exec_context.thread_0.statExecutedInstType::FloatMultAcc            0                       # Class of executed instruction. (Count)
system.atomicCpu1.exec_context.thread_0.statExecutedInstType::FloatDiv            0                       # Class of executed instruction. (Count)
system.atomicCpu1.exec_context.thread_0.statExecutedInstType::FloatMisc            0                       # Class of executed instruction. (Count)
system.atomicCpu1.exec_context.thread_0.statExecutedInstType::FloatSqrt            0                       # Class of executed instruction. (Count)
system.atomicCpu1.exec_context.thread_0.statExecutedInstType::SimdAdd            0                       # Class of executed instruction. (Count)
system.atomicCpu1.exec_context.thread_0.statExecutedInstType::SimdAddAcc            0                       # Class of executed instruction. (Count)
system.atomicCpu1.exec_context.thread_0.statExecutedInstType::SimdAlu            0                       # Class of executed instruction. (Count)
system.atomicCpu1.exec_context.thread_0.statExecutedInstType::SimdCmp            0                       # Class of executed instruction. (Count)
system.atomicCpu1.exec_context.thread_0.statExecutedInstType::SimdCvt            0                       # Class of executed instruction. (Count)
system.atomicCpu1.exec_context.thread_0.statExecutedInstType::SimdMisc            0                       # Class of executed instruction. (Count)
system.atomicCpu1.exec_context.thread_0.statExecutedInstType::SimdMult            0                       # Class of executed instruction. (Count)
system.atomicCpu1.exec_context.thread_0.statExecutedInstType::SimdMultAcc            0                       # Class of executed instruction. (Count)
system.atomicCpu1.exec_context.thread_0.statExecutedInstType::SimdShift            0                       # Class of executed instruction. (Count)
system.atomicCpu1.exec_context.thread_0.statExecutedInstType::SimdShiftAcc            0                       # Class of executed instruction. (Count)
system.atomicCpu1.exec_context.thread_0.statExecutedInstType::SimdDiv            0                       # Class of executed instruction. (Count)
system.atomicCpu1.exec_context.thread_0.statExecutedInstType::SimdSqrt            0                       # Class of executed instruction. (Count)
system.atomicCpu1.exec_context.thread_0.statExecutedInstType::SimdFloatAdd            0                       # Class of executed instruction. (Count)
system.atomicCpu1.exec_context.thread_0.statExecutedInstType::SimdFloatAlu            0                       # Class of executed instruction. (Count)
system.atomicCpu1.exec_context.thread_0.statExecutedInstType::SimdFloatCmp            0                       # Class of executed instruction. (Count)
system.atomicCpu1.exec_context.thread_0.statExecutedInstType::SimdFloatCvt            0                       # Class of executed instruction. (Count)
system.atomicCpu1.exec_context.thread_0.statExecutedInstType::SimdFloatDiv            0                       # Class of executed instruction. (Count)
system.atomicCpu1.exec_context.thread_0.statExecutedInstType::SimdFloatMisc            0                       # Class of executed instruction. (Count)
system.atomicCpu1.exec_context.thread_0.statExecutedInstType::SimdFloatMult            0                       # Class of executed instruction. (Count)
system.atomicCpu1.exec_context.thread_0.statExecutedInstType::SimdFloatMultAcc            0                       # Class of executed instruction. (Count)
system.atomicCpu1.exec_context.thread_0.statExecutedInstType::SimdFloatSqrt            0                       # Class of executed instruction. (Count)
system.atomicCpu1.exec_context.thread_0.statExecutedInstType::SimdReduceAdd            0                       # Class of executed instruction. (Count)
system.atomicCpu1.exec_context.thread_0.statExecutedInstType::SimdReduceAlu            0                       # Class of executed instruction. (Count)
system.atomicCpu1.exec_context.thread_0.statExecutedInstType::SimdReduceCmp            0                       # Class of executed instruction. (Count)
system.atomicCpu1.exec_context.thread_0.statExecutedInstType::SimdFloatReduceAdd            0                       # Class of executed instruction. (Count)
system.atomicCpu1.exec_context.thread_0.statExecutedInstType::SimdFloatReduceCmp            0                       # Class of executed instruction. (Count)
system.atomicCpu1.exec_context.thread_0.statExecutedInstType::SimdAes            0                       # Class of executed instruction. (Count)
system.atomicCpu1.exec_context.thread_0.statExecutedInstType::SimdAesMix            0                       # Class of executed instruction. (Count)
system.atomicCpu1.exec_context.thread_0.statExecutedInstType::SimdSha1Hash            0                       # Class of executed instruction. (Count)
system.atomicCpu1.exec_context.thread_0.statExecutedInstType::SimdSha1Hash2            0                       # Class of executed instruction. (Count)
system.atomicCpu1.exec_context.thread_0.statExecutedInstType::SimdSha256Hash            0                       # Class of executed instruction. (Count)
system.atomicCpu1.exec_context.thread_0.statExecutedInstType::SimdSha256Hash2            0                       # Class of executed instruction. (Count)
system.atomicCpu1.exec_context.thread_0.statExecutedInstType::SimdShaSigma2            0                       # Class of executed instruction. (Count)
system.atomicCpu1.exec_context.thread_0.statExecutedInstType::SimdShaSigma3            0                       # Class of executed instruction. (Count)
system.atomicCpu1.exec_context.thread_0.statExecutedInstType::SimdPredAlu            0                       # Class of executed instruction. (Count)
system.atomicCpu1.exec_context.thread_0.statExecutedInstType::MemRead            0                       # Class of executed instruction. (Count)
system.atomicCpu1.exec_context.thread_0.statExecutedInstType::MemWrite            0                       # Class of executed instruction. (Count)
system.atomicCpu1.exec_context.thread_0.statExecutedInstType::FloatMemRead            0                       # Class of executed instruction. (Count)
system.atomicCpu1.exec_context.thread_0.statExecutedInstType::FloatMemWrite            0                       # Class of executed instruction. (Count)
system.atomicCpu1.exec_context.thread_0.statExecutedInstType::IprAccess            0                       # Class of executed instruction. (Count)
system.atomicCpu1.exec_context.thread_0.statExecutedInstType::InstPrefetch            0                       # Class of executed instruction. (Count)
system.atomicCpu1.exec_context.thread_0.statExecutedInstType::total            0                       # Class of executed instruction. (Count)
system.atomicCpu1.mmu.dtb.rdAccesses                0                       # TLB accesses on read requests (Count)
system.atomicCpu1.mmu.dtb.wrAccesses                0                       # TLB accesses on write requests (Count)
system.atomicCpu1.mmu.dtb.rdMisses                  0                       # TLB misses on read requests (Count)
system.atomicCpu1.mmu.dtb.wrMisses                  0                       # TLB misses on write requests (Count)
system.atomicCpu1.mmu.dtb.walker.power_state.pwrStateResidencyTicks::UNDEFINED 25316768293500                       # Cumulative time (in ticks) in various power states (Tick)
system.atomicCpu1.mmu.itb.rdAccesses                0                       # TLB accesses on read requests (Count)
system.atomicCpu1.mmu.itb.wrAccesses                0                       # TLB accesses on write requests (Count)
system.atomicCpu1.mmu.itb.rdMisses                  0                       # TLB misses on read requests (Count)
system.atomicCpu1.mmu.itb.wrMisses                  0                       # TLB misses on write requests (Count)
system.atomicCpu1.mmu.itb.walker.power_state.pwrStateResidencyTicks::UNDEFINED 25316768293500                       # Cumulative time (in ticks) in various power states (Tick)
system.atomicCpu1.power_state.pwrStateResidencyTicks::OFF 25316768293500                       # Cumulative time (in ticks) in various power states (Tick)
system.atomicCpu1.thread_0.numInsts                 0                       # Number of Instructions committed (Count)
system.atomicCpu1.thread_0.numOps                   0                       # Number of Ops committed (Count)
system.atomicCpu1.thread_0.numMemRefs               0                       # Number of Memory References (Count)
system.caches.delayHistogram::bucket_size           64                       # delay histogram for all message (Unspecified)
system.caches.delayHistogram::max_bucket          639                       # delay histogram for all message (Unspecified)
system.caches.delayHistogram::samples       440484511                       # delay histogram for all message (Unspecified)
system.caches.delayHistogram::mean           0.377410                       # delay histogram for all message (Unspecified)
system.caches.delayHistogram::stdev          1.701700                       # delay histogram for all message (Unspecified)
system.caches.delayHistogram             |   440484443    100.00%    100.00% |          63      0.00%    100.00% |           0      0.00%    100.00% |           0      0.00%    100.00% |           0      0.00%    100.00% |           0      0.00%    100.00% |           0      0.00%    100.00% |           1      0.00%    100.00% |           1      0.00%    100.00% |           3      0.00%    100.00% # delay histogram for all message (Unspecified)
system.caches.delayHistogram::total         440484511                       # delay histogram for all message (Unspecified)
system.caches.m_outstandReqHistSeqr::bucket_size            1                       (Unspecified)
system.caches.m_outstandReqHistSeqr::max_bucket            9                       (Unspecified)
system.caches.m_outstandReqHistSeqr::samples   5493535506                       (Unspecified)
system.caches.m_outstandReqHistSeqr::mean     1.000000                       (Unspecified)
system.caches.m_outstandReqHistSeqr::gmean     1.000000                       (Unspecified)
system.caches.m_outstandReqHistSeqr::stdev     0.000071                       (Unspecified)
system.caches.m_outstandReqHistSeqr      |           0      0.00%      0.00% |  5493535478    100.00%    100.00% |          28      0.00%    100.00% |           0      0.00%    100.00% |           0      0.00%    100.00% |           0      0.00%    100.00% |           0      0.00%    100.00% |           0      0.00%    100.00% |           0      0.00%    100.00% |           0      0.00%    100.00% (Unspecified)
system.caches.m_outstandReqHistSeqr::total   5493535506                       (Unspecified)
system.caches.m_latencyHistSeqr::bucket_size          512                       (Unspecified)
system.caches.m_latencyHistSeqr::max_bucket         5119                       (Unspecified)
system.caches.m_latencyHistSeqr::samples   5493535504                       (Unspecified)
system.caches.m_latencyHistSeqr::mean        6.270566                       (Unspecified)
system.caches.m_latencyHistSeqr::gmean       1.069994                       (Unspecified)
system.caches.m_latencyHistSeqr::stdev      56.994248                       (Unspecified)
system.caches.m_latencyHistSeqr          |  5467221437     99.52%     99.52% |    25082270      0.46%     99.98% |      224770      0.00%     99.98% |      925724      0.02%    100.00% |       80857      0.00%    100.00% |         446      0.00%    100.00% |           0      0.00%    100.00% |           0      0.00%    100.00% |           0      0.00%    100.00% |           0      0.00%    100.00% (Unspecified)
system.caches.m_latencyHistSeqr::total     5493535504                       (Unspecified)
system.caches.m_hitLatencyHistSeqr::bucket_size            1                       (Unspecified)
system.caches.m_hitLatencyHistSeqr::max_bucket            9                       (Unspecified)
system.caches.m_hitLatencyHistSeqr::samples   5427110990                       (Unspecified)
system.caches.m_hitLatencyHistSeqr::mean            1                       (Unspecified)
system.caches.m_hitLatencyHistSeqr::gmean            1                       (Unspecified)
system.caches.m_hitLatencyHistSeqr       |           0      0.00%      0.00% |  5427110990    100.00%    100.00% |           0      0.00%    100.00% |           0      0.00%    100.00% |           0      0.00%    100.00% |           0      0.00%    100.00% |           0      0.00%    100.00% |           0      0.00%    100.00% |           0      0.00%    100.00% |           0      0.00%    100.00% (Unspecified)
system.caches.m_hitLatencyHistSeqr::total   5427110990                       (Unspecified)
system.caches.m_missLatencyHistSeqr::bucket_size          512                       (Unspecified)
system.caches.m_missLatencyHistSeqr::max_bucket         5119                       (Unspecified)
system.caches.m_missLatencyHistSeqr::samples     66424514                       (Unspecified)
system.caches.m_missLatencyHistSeqr::mean   436.893956                       (Unspecified)
system.caches.m_missLatencyHistSeqr::gmean   269.113162                       (Unspecified)
system.caches.m_missLatencyHistSeqr::stdev   284.505009                       (Unspecified)
system.caches.m_missLatencyHistSeqr      |    40110447     60.39%     60.39% |    25082270     37.76%     98.15% |      224770      0.34%     98.48% |      925724      1.39%     99.88% |       80857      0.12%    100.00% |         446      0.00%    100.00% |           0      0.00%    100.00% |           0      0.00%    100.00% |           0      0.00%    100.00% |           0      0.00%    100.00% (Unspecified)
system.caches.m_missLatencyHistSeqr::total     66424514                       (Unspecified)
system.caches.delayVCHist.vnet_0::bucket_size           64                       # delay histogram for vnet_0 (Unspecified)
system.caches.delayVCHist.vnet_0::max_bucket          639                       # delay histogram for vnet_0 (Unspecified)
system.caches.delayVCHist.vnet_0::samples    197878753                       # delay histogram for vnet_0 (Unspecified)
system.caches.delayVCHist.vnet_0::mean       0.839120                       # delay histogram for vnet_0 (Unspecified)
system.caches.delayVCHist.vnet_0::stdev      2.460455                       # delay histogram for vnet_0 (Unspecified)
system.caches.delayVCHist.vnet_0         |   197878685    100.00%    100.00% |          63      0.00%    100.00% |           0      0.00%    100.00% |           0      0.00%    100.00% |           0      0.00%    100.00% |           0      0.00%    100.00% |           0      0.00%    100.00% |           1      0.00%    100.00% |           1      0.00%    100.00% |           3      0.00%    100.00% # delay histogram for vnet_0 (Unspecified)
system.caches.delayVCHist.vnet_0::total     197878753                       # delay histogram for vnet_0 (Unspecified)
system.caches.delayVCHist.vnet_1::bucket_size            4                       # delay histogram for vnet_1 (Unspecified)
system.caches.delayVCHist.vnet_1::max_bucket           39                       # delay histogram for vnet_1 (Unspecified)
system.caches.delayVCHist.vnet_1::samples    242325574                       # delay histogram for vnet_1 (Unspecified)
system.caches.delayVCHist.vnet_1::mean       0.000822                       # delay histogram for vnet_1 (Unspecified)
system.caches.delayVCHist.vnet_1::stdev      0.065300                       # delay histogram for vnet_1 (Unspecified)
system.caches.delayVCHist.vnet_1         |   242294373     99.99%     99.99% |       27021      0.01%    100.00% |        4178      0.00%    100.00% |           0      0.00%    100.00% |           0      0.00%    100.00% |           2      0.00%    100.00% |           0      0.00%    100.00% |           0      0.00%    100.00% |           0      0.00%    100.00% |           0      0.00%    100.00% # delay histogram for vnet_1 (Unspecified)
system.caches.delayVCHist.vnet_1::total     242325574                       # delay histogram for vnet_1 (Unspecified)
system.caches.delayVCHist.vnet_2::bucket_size            1                       # delay histogram for vnet_2 (Unspecified)
system.caches.delayVCHist.vnet_2::max_bucket            9                       # delay histogram for vnet_2 (Unspecified)
system.caches.delayVCHist.vnet_2::samples       280184                       # delay histogram for vnet_2 (Unspecified)
system.caches.delayVCHist.vnet_2::mean       0.000079                       # delay histogram for vnet_2 (Unspecified)
system.caches.delayVCHist.vnet_2::stdev      0.012531                       # delay histogram for vnet_2 (Unspecified)
system.caches.delayVCHist.vnet_2         |      280173    100.00%    100.00% |           0      0.00%    100.00% |          11      0.00%    100.00% |           0      0.00%    100.00% |           0      0.00%    100.00% |           0      0.00%    100.00% |           0      0.00%    100.00% |           0      0.00%    100.00% |           0      0.00%    100.00% |           0      0.00%    100.00% # delay histogram for vnet_2 (Unspecified)
system.caches.delayVCHist.vnet_2::total        280184                       # delay histogram for vnet_2 (Unspecified)
system.caches.L1Cache_Controller.Load    |   498111948     50.08%     50.08% |   496466961     49.92%    100.00% (Unspecified)
system.caches.L1Cache_Controller.Load::total    994578909                       (Unspecified)
system.caches.L1Cache_Controller.Ifetch  |  2125443735     50.07%     50.07% |  2119894756     49.93%    100.00% (Unspecified)
system.caches.L1Cache_Controller.Ifetch::total   4245338491                       (Unspecified)
system.caches.L1Cache_Controller.Store   |   127213164     50.16%     50.16% |   126404941     49.84%    100.00% (Unspecified)
system.caches.L1Cache_Controller.Store::total    253618105                       (Unspecified)
system.caches.L1Cache_Controller.Inv     |      112246     46.49%     46.49% |      129180     53.51%    100.00% (Unspecified)
system.caches.L1Cache_Controller.Inv::total       241426                       (Unspecified)
system.caches.L1Cache_Controller.L1_Replacement |    33142111     50.09%     50.09% |    33022249     49.91%    100.00% (Unspecified)
system.caches.L1Cache_Controller.L1_Replacement::total     66164360                       (Unspecified)
system.caches.L1Cache_Controller.Fwd_GETX |          89      6.56%      6.56% |        1267     93.44%    100.00% (Unspecified)
system.caches.L1Cache_Controller.Fwd_GETX::total         1356                       (Unspecified)
system.caches.L1Cache_Controller.Fwd_GETS |       35348     94.51%     94.51% |        2054      5.49%    100.00% (Unspecified)
system.caches.L1Cache_Controller.Fwd_GETS::total        37402                       (Unspecified)
system.caches.L1Cache_Controller.Data    |        4751     99.79%     99.79% |          10      0.21%    100.00% (Unspecified)
system.caches.L1Cache_Controller.Data::total         4761                       (Unspecified)
system.caches.L1Cache_Controller.Data_Exclusive |    29728992     50.04%     50.04% |    29678020     49.96%    100.00% (Unspecified)
system.caches.L1Cache_Controller.Data_Exclusive::total     59407012                       (Unspecified)
system.caches.L1Cache_Controller.DataS_fromL1 |        2054      5.49%      5.49% |       35348     94.51%    100.00% (Unspecified)
system.caches.L1Cache_Controller.DataS_fromL1::total        37402                       (Unspecified)
system.caches.L1Cache_Controller.Data_all_Acks |     3513352     50.59%     50.59% |     3431777     49.41%    100.00% (Unspecified)
system.caches.L1Cache_Controller.Data_all_Acks::total      6945129                       (Unspecified)
system.caches.L1Cache_Controller.Ack     |       29834     98.76%     98.76% |         376      1.24%    100.00% (Unspecified)
system.caches.L1Cache_Controller.Ack::total        30210                       (Unspecified)
system.caches.L1Cache_Controller.Ack_all |       34585     98.90%     98.90% |         386      1.10%    100.00% (Unspecified)
system.caches.L1Cache_Controller.Ack_all::total        34971                       (Unspecified)
system.caches.L1Cache_Controller.WB_Ack  |    32859094     50.04%     50.04% |    32808173     49.96%    100.00% (Unspecified)
system.caches.L1Cache_Controller.WB_Ack::total     65667267                       (Unspecified)
system.caches.L1Cache_Controller.NP.Load |    29814319     50.04%     50.04% |    29763728     49.96%    100.00% (Unspecified)
system.caches.L1Cache_Controller.NP.Load::total     59578047                       (Unspecified)
system.caches.L1Cache_Controller.NP.Ifetch |      179148     60.23%     60.23% |      118306     39.77%    100.00% (Unspecified)
system.caches.L1Cache_Controller.NP.Ifetch::total       297454                       (Unspecified)
system.caches.L1Cache_Controller.NP.Store |     3157347     50.07%     50.07% |     3148919     49.93%    100.00% (Unspecified)
system.caches.L1Cache_Controller.NP.Store::total      6306266                       (Unspecified)
system.caches.L1Cache_Controller.NP.Inv  |        4112     32.55%     32.55% |        8520     67.45%    100.00% (Unspecified)
system.caches.L1Cache_Controller.NP.Inv::total        12632                       (Unspecified)
system.caches.L1Cache_Controller.I.Load  |        9064     18.92%     18.92% |       38842     81.08%    100.00% (Unspecified)
system.caches.L1Cache_Controller.I.Load::total        47906                       (Unspecified)
system.caches.L1Cache_Controller.I.Ifetch |       85844     54.14%     54.14% |       72707     45.86%    100.00% (Unspecified)
system.caches.L1Cache_Controller.I.Ifetch::total       158551                       (Unspecified)
system.caches.L1Cache_Controller.I.Store |        3428     56.40%     56.40% |        2650     43.60%    100.00% (Unspecified)
system.caches.L1Cache_Controller.I.Store::total         6078                       (Unspecified)
system.caches.L1Cache_Controller.I.L1_Replacement |        9573     56.47%     56.47% |        7378     43.53%    100.00% (Unspecified)
system.caches.L1Cache_Controller.I.L1_Replacement::total        16951                       (Unspecified)
system.caches.L1Cache_Controller.S.Load  |      993716     44.24%     44.24% |     1252658     55.76%    100.00% (Unspecified)
system.caches.L1Cache_Controller.S.Load::total      2246374                       (Unspecified)
system.caches.L1Cache_Controller.S.Ifetch |  2125178743     50.06%     50.06% |  2119703743     49.94%    100.00% (Unspecified)
system.caches.L1Cache_Controller.S.Ifetch::total   4244882486                       (Unspecified)
system.caches.L1Cache_Controller.S.Store |       29834     98.75%     98.75% |         379      1.25%    100.00% (Unspecified)
system.caches.L1Cache_Controller.S.Store::total        30213                       (Unspecified)
system.caches.L1Cache_Controller.S.Inv   |       91180     45.25%     45.25% |      110306     54.75%    100.00% (Unspecified)
system.caches.L1Cache_Controller.S.Inv::total       201486                       (Unspecified)
system.caches.L1Cache_Controller.S.L1_Replacement |      273444     56.95%     56.95% |      206698     43.05%    100.00% (Unspecified)
system.caches.L1Cache_Controller.S.L1_Replacement::total       480142                       (Unspecified)
system.caches.L1Cache_Controller.E.Load  |   319744452     49.59%     49.59% |   324974146     50.41%    100.00% (Unspecified)
system.caches.L1Cache_Controller.E.Load::total    644718598                       (Unspecified)
system.caches.L1Cache_Controller.E.Store |     7139351     50.05%     50.05% |     7125497     49.95%    100.00% (Unspecified)
system.caches.L1Cache_Controller.E.Store::total     14264848                       (Unspecified)
system.caches.L1Cache_Controller.E.Inv   |        9652     64.67%     64.67% |        5272     35.33%    100.00% (Unspecified)
system.caches.L1Cache_Controller.E.Inv::total        14924                       (Unspecified)
system.caches.L1Cache_Controller.E.L1_Replacement |    22571942     50.04%     50.04% |    22537502     49.96%    100.00% (Unspecified)
system.caches.L1Cache_Controller.E.L1_Replacement::total     45109444                       (Unspecified)
system.caches.L1Cache_Controller.E.Fwd_GETX |           5      0.40%      0.40% |        1239     99.60%    100.00% (Unspecified)
system.caches.L1Cache_Controller.E.Fwd_GETX::total         1244                       (Unspecified)
system.caches.L1Cache_Controller.E.Fwd_GETS |        1343     42.84%     42.84% |        1792     57.16%    100.00% (Unspecified)
system.caches.L1Cache_Controller.E.Fwd_GETS::total         3135                       (Unspecified)
system.caches.L1Cache_Controller.M.Load  |   147550397     51.23%     51.23% |   140437587     48.77%    100.00% (Unspecified)
system.caches.L1Cache_Controller.M.Load::total    287987984                       (Unspecified)
system.caches.L1Cache_Controller.M.Store |   116883204     50.16%     50.16% |   116127496     49.84%    100.00% (Unspecified)
system.caches.L1Cache_Controller.M.Store::total    233010700                       (Unspecified)
system.caches.L1Cache_Controller.M.Inv   |        7302     59.00%     59.00% |        5074     41.00%    100.00% (Unspecified)
system.caches.L1Cache_Controller.M.Inv::total        12376                       (Unspecified)
system.caches.L1Cache_Controller.M.L1_Replacement |    10287152     50.04%     50.04% |    10270671     49.96%    100.00% (Unspecified)
system.caches.L1Cache_Controller.M.L1_Replacement::total     20557823                       (Unspecified)
system.caches.L1Cache_Controller.M.Fwd_GETX |          84     75.00%     75.00% |          28     25.00%    100.00% (Unspecified)
system.caches.L1Cache_Controller.M.Fwd_GETX::total          112                       (Unspecified)
system.caches.L1Cache_Controller.M.Fwd_GETS |       34005     99.24%     99.24% |         262      0.76%    100.00% (Unspecified)
system.caches.L1Cache_Controller.M.Fwd_GETS::total        34267                       (Unspecified)
system.caches.L1Cache_Controller.IS.Inv  |           0      0.00%      0.00% |           5    100.00%    100.00% (Unspecified)
system.caches.L1Cache_Controller.IS.Inv::total            5                       (Unspecified)
system.caches.L1Cache_Controller.IS.Data_Exclusive |    29728992     50.04%     50.04% |    29678020     49.96%    100.00% (Unspecified)
system.caches.L1Cache_Controller.IS.Data_Exclusive::total     59407012                       (Unspecified)
system.caches.L1Cache_Controller.IS.DataS_fromL1 |        2054      5.49%      5.49% |       35343     94.51%    100.00% (Unspecified)
system.caches.L1Cache_Controller.IS.DataS_fromL1::total        37397                       (Unspecified)
system.caches.L1Cache_Controller.IS.Data_all_Acks |      357328     56.05%     56.05% |      280215     43.95%    100.00% (Unspecified)
system.caches.L1Cache_Controller.IS.Data_all_Acks::total       637543                       (Unspecified)
system.caches.L1Cache_Controller.IM.Data |        4751     99.79%     99.79% |          10      0.21%    100.00% (Unspecified)
system.caches.L1Cache_Controller.IM.Data::total         4761                       (Unspecified)
system.caches.L1Cache_Controller.IM.Data_all_Acks |     3156024     50.04%     50.04% |     3151562     49.96%    100.00% (Unspecified)
system.caches.L1Cache_Controller.IM.Data_all_Acks::total      6307586                       (Unspecified)
system.caches.L1Cache_Controller.SM.Inv  |           0      0.00%      0.00% |           3    100.00%    100.00% (Unspecified)
system.caches.L1Cache_Controller.SM.Inv::total            3                       (Unspecified)
system.caches.L1Cache_Controller.SM.Ack  |       29834     98.76%     98.76% |         376      1.24%    100.00% (Unspecified)
system.caches.L1Cache_Controller.SM.Ack::total        30210                       (Unspecified)
system.caches.L1Cache_Controller.SM.Ack_all |       34585     98.90%     98.90% |         386      1.10%    100.00% (Unspecified)
system.caches.L1Cache_Controller.SM.Ack_all::total        34971                       (Unspecified)
system.caches.L1Cache_Controller.IS_I.DataS_fromL1 |           0      0.00%      0.00% |           5    100.00%    100.00% (Unspecified)
system.caches.L1Cache_Controller.IS_I.DataS_fromL1::total            5                       (Unspecified)
system.caches.L1Cache_Controller.M_I.WB_Ack |    32859094     50.04%     50.04% |    32808173     49.96%    100.00% (Unspecified)
system.caches.L1Cache_Controller.M_I.WB_Ack::total     65667267                       (Unspecified)
system.caches.Directory_Controller.Fetch     55041834      0.00%      0.00% (Unspecified)
system.caches.Directory_Controller.Data      15268757      0.00%      0.00% (Unspecified)
system.caches.Directory_Controller.Memory_Data     55041866      0.00%      0.00% (Unspecified)
system.caches.Directory_Controller.Memory_Ack     15268757      0.00%      0.00% (Unspecified)
system.caches.Directory_Controller.DMA_READ         2403      0.00%      0.00% (Unspecified)
system.caches.Directory_Controller.CleanReplacement     39642005      0.00%      0.00% (Unspecified)
system.caches.Directory_Controller.I.Fetch     55041834      0.00%      0.00% (Unspecified)
system.caches.Directory_Controller.I.DMA_READ           33      0.00%      0.00% (Unspecified)
system.caches.Directory_Controller.ID.Memory_Data           33      0.00%      0.00% (Unspecified)
system.caches.Directory_Controller.M.Data     15266387      0.00%      0.00% (Unspecified)
system.caches.Directory_Controller.M.DMA_READ         2370      0.00%      0.00% (Unspecified)
system.caches.Directory_Controller.M.CleanReplacement     39642005      0.00%      0.00% (Unspecified)
system.caches.Directory_Controller.IM.Memory_Data     55041833      0.00%      0.00% (Unspecified)
system.caches.Directory_Controller.MI.Memory_Ack     15266387      0.00%      0.00% (Unspecified)
system.caches.Directory_Controller.M_DRD.Data         2370      0.00%      0.00% (Unspecified)
system.caches.Directory_Controller.M_DRDI.Memory_Ack         2370      0.00%      0.00% (Unspecified)
system.caches.DMA_Controller.ReadRequest |        2403    100.00%    100.00% |           0      0.00%    100.00% (Unspecified)
system.caches.DMA_Controller.ReadRequest::total         2403                       (Unspecified)
system.caches.DMA_Controller.Data        |        2403    100.00%    100.00% |           0      0.00%    100.00% (Unspecified)
system.caches.DMA_Controller.Data::total         2403                       (Unspecified)
system.caches.DMA_Controller.READY.ReadRequest |        2403    100.00%    100.00% |           0      0.00%    100.00% (Unspecified)
system.caches.DMA_Controller.READY.ReadRequest::total         2403                       (Unspecified)
system.caches.DMA_Controller.BUSY_RD.Data |        2403    100.00%    100.00% |           0      0.00%    100.00% (Unspecified)
system.caches.DMA_Controller.BUSY_RD.Data::total         2403                       (Unspecified)
system.caches.L2Cache_Controller.L1_GET_INSTR |       34844      7.64%      7.64% |       74890     16.42%     24.06% |       68102     14.93%     38.99% |       24519      5.38%     44.37% |       54419     11.93%     56.30% |       56773     12.45%     68.74% |       71881     15.76%     84.50% |       70683     15.50%    100.00% (Unspecified)
system.caches.L2Cache_Controller.L1_GET_INSTR::total       456111                       (Unspecified)
system.caches.L2Cache_Controller.L1_GETS |     7482758     12.55%     12.55% |     7469670     12.52%     25.07% |     7446049     12.49%     37.56% |     7434908     12.47%     50.02% |     7444529     12.48%     62.51% |     7435248     12.47%     74.97% |     7469730     12.52%     87.50% |     7456698     12.50%    100.00% (Unspecified)
system.caches.L2Cache_Controller.L1_GETS::total     59639590                       (Unspecified)
system.caches.L2Cache_Controller.L1_GETX |      797381     12.63%     12.63% |      785627     12.45%     25.08% |      781422     12.38%     37.46% |      785404     12.44%     49.90% |      784240     12.42%     62.32% |      798000     12.64%     74.96% |      790488     12.52%     87.49% |      789825     12.51%    100.00% (Unspecified)
system.caches.L2Cache_Controller.L1_GETX::total      6312387                       (Unspecified)
system.caches.L2Cache_Controller.L1_UPGRADE |        4489     10.78%     10.78% |        4109      9.87%     20.64% |          56      0.13%     20.78% |          28      0.07%     20.85% |         101      0.24%     21.09% |          34      0.08%     21.17% |       32712     78.54%     99.71% |         120      0.29%    100.00% (Unspecified)
system.caches.L2Cache_Controller.L1_UPGRADE::total        41649                       (Unspecified)
system.caches.L2Cache_Controller.L1_PUTX |     8217250     12.51%     12.51% |     8216588     12.51%     25.03% |     8196227     12.48%     37.51% |     8201341     12.49%     50.00% |     8201656     12.49%     62.49% |     8213444     12.51%     74.99% |     8207578     12.50%     87.49% |     8213183     12.51%    100.00% (Unspecified)
system.caches.L2Cache_Controller.L1_PUTX::total     65667267                       (Unspecified)
system.caches.L2Cache_Controller.L2_Replacement |     1907780     12.50%     12.50% |     1907513     12.50%     25.00% |     1907555     12.50%     37.50% |     1906880     12.50%     50.00% |     1906920     12.50%     62.50% |     1907618     12.50%     75.00% |     1907523     12.50%     87.50% |     1907772     12.50%    100.00% (Unspecified)
system.caches.L2Cache_Controller.L2_Replacement::total     15259561                       (Unspecified)
system.caches.L2Cache_Controller.L2_Replacement_clean |     4958049     12.50%     12.50% |     4957773     12.50%     25.01% |     4954942     12.50%     37.51% |     4954387     12.50%     50.00% |     4955745     12.50%     62.50% |     4956522     12.50%     75.00% |     4954565     12.50%     87.50% |     4956848     12.50%    100.00% (Unspecified)
system.caches.L2Cache_Controller.L2_Replacement_clean::total     39648831                       (Unspecified)
system.caches.L2Cache_Controller.Mem_Data |     6882512     12.50%     12.50% |     6881966     12.50%     25.01% |     6879177     12.50%     37.51% |     6877948     12.50%     50.00% |     6879344     12.50%     62.50% |     6880820     12.50%     75.00% |     6878766     12.50%     87.50% |     6881300     12.50%    100.00% (Unspecified)
system.caches.L2Cache_Controller.Mem_Data::total     55041833                       (Unspecified)
system.caches.L2Cache_Controller.Mem_Ack |     6866128     12.50%     12.50% |     6865582     12.50%     25.01% |     6862793     12.50%     37.51% |     6861564     12.50%     50.00% |     6862960     12.50%     62.50% |     6864436     12.50%     75.00% |     6862383     12.50%     87.50% |     6864916     12.50%    100.00% (Unspecified)
system.caches.L2Cache_Controller.Mem_Ack::total     54910762                       (Unspecified)
system.caches.L2Cache_Controller.WB_Data |       10092     21.64%     21.64% |        4710     10.10%     31.73% |         619      1.33%     33.06% |        1476      3.16%     36.23% |        1284      2.75%     38.98% |        2408      5.16%     44.14% |       23923     51.29%     95.43% |        2131      4.57%    100.00% (Unspecified)
system.caches.L2Cache_Controller.WB_Data::total        46643                       (Unspecified)
system.caches.L2Cache_Controller.WB_Data_clean |         374     11.93%     11.93% |        1055     33.65%     45.58% |         517     16.49%     62.07% |         205      6.54%     68.61% |         311      9.92%     78.53% |         227      7.24%     85.77% |         141      4.50%     90.27% |         305      9.73%    100.00% (Unspecified)
system.caches.L2Cache_Controller.WB_Data_clean::total         3135                       (Unspecified)
system.caches.L2Cache_Controller.Ack     |       10680     13.91%     13.91% |        9912     12.91%     26.82% |        9001     11.72%     38.54% |        8377     10.91%     49.45% |       10039     13.07%     62.52% |       10590     13.79%     76.31% |        8876     11.56%     87.87% |        9313     12.13%    100.00% (Unspecified)
system.caches.L2Cache_Controller.Ack::total        76788                       (Unspecified)
system.caches.L2Cache_Controller.Ack_all |       16201     13.81%     13.81% |       16136     13.76%     27.57% |       13567     11.57%     39.14% |       13090     11.16%     50.30% |       14693     12.53%     62.82% |       14800     12.62%     75.44% |       13522     11.53%     86.97% |       15282     13.03%    100.00% (Unspecified)
system.caches.L2Cache_Controller.Ack_all::total       117291                       (Unspecified)
system.caches.L2Cache_Controller.Unblock |        8370     22.38%     22.38% |        4467     11.94%     34.32% |         573      1.53%     35.85% |         231      0.62%     36.47% |         444      1.19%     37.66% |         262      0.70%     38.36% |       22622     60.48%     98.84% |         433      1.16%    100.00% (Unspecified)
system.caches.L2Cache_Controller.Unblock::total        37402                       (Unspecified)
system.caches.L2Cache_Controller.Exclusive_Unblock |     8232802     12.52%     12.52% |     8226860     12.51%     25.03% |     8200896     12.47%     37.51% |     8206808     12.48%     49.99% |     8207287     12.48%     62.47% |     8219656     12.50%     74.97% |     8235903     12.53%     87.50% |     8219357     12.50%    100.00% (Unspecified)
system.caches.L2Cache_Controller.Exclusive_Unblock::total     65749569                       (Unspecified)
system.caches.L2Cache_Controller.MEM_Inv |         598     12.62%     12.62% |         592     12.49%     25.11% |         592     12.49%     37.59% |         594     12.53%     50.13% |         590     12.45%     62.57% |         592     12.49%     75.06% |         590     12.45%     87.51% |         592     12.49%    100.00% (Unspecified)
system.caches.L2Cache_Controller.MEM_Inv::total         4740                       (Unspecified)
system.caches.L2Cache_Controller.NP.L1_GET_INSTR |       13750     13.91%     13.91% |       13197     13.35%     27.27% |       11347     11.48%     38.75% |       11059     11.19%     49.94% |       12252     12.40%     62.34% |       12925     13.08%     75.42% |       11189     11.32%     86.74% |       13107     13.26%    100.00% (Unspecified)
system.caches.L2Cache_Controller.NP.L1_GET_INSTR::total        98826                       (Unspecified)
system.caches.L2Cache_Controller.NP.L1_GETS |     6089859     12.50%     12.50% |     6090611     12.50%     25.00% |     6090013     12.50%     37.50% |     6088886     12.50%     50.00% |     6089060     12.50%     62.50% |     6088836     12.50%     75.00% |     6089311     12.50%     87.50% |     6089646     12.50%    100.00% (Unspecified)
system.caches.L2Cache_Controller.NP.L1_GETS::total     48716222                       (Unspecified)
system.caches.L2Cache_Controller.NP.L1_GETX |      778903     12.51%     12.51% |      778158     12.50%     25.01% |      777817     12.49%     37.50% |      778003     12.49%     49.99% |      778032     12.49%     62.49% |      779059     12.51%     75.00% |      778267     12.50%     87.50% |      778547     12.50%    100.00% (Unspecified)
system.caches.L2Cache_Controller.NP.L1_GETX::total      6226786                       (Unspecified)
system.caches.L2Cache_Controller.SS.L1_GET_INSTR |       16410      5.02%      5.02% |       57415     17.55%     22.57% |       53391     16.32%     38.90% |       10010      3.06%     41.96% |       38373     11.73%     53.69% |       39914     12.20%     65.89% |       57354     17.54%     83.43% |       54198     16.57%    100.00% (Unspecified)
system.caches.L2Cache_Controller.SS.L1_GET_INSTR::total       327065                       (Unspecified)
system.caches.L2Cache_Controller.SS.L1_GETS |       42843     23.97%     23.97% |       27706     15.50%     39.47% |       25554     14.30%     53.77% |       13048      7.30%     61.07% |       20779     11.63%     72.69% |       13034      7.29%     79.99% |        9394      5.26%     85.24% |       26378     14.76%    100.00% (Unspecified)
system.caches.L2Cache_Controller.SS.L1_GETS::total       178736                       (Unspecified)
system.caches.L2Cache_Controller.SS.L1_GETX |        3511     73.75%     73.75% |           3      0.06%     73.81% |           3      0.06%     73.87% |           1      0.02%     73.89% |          30      0.63%     74.52% |           3      0.06%     74.59% |        1204     25.29%     99.87% |           6      0.13%    100.00% (Unspecified)
system.caches.L2Cache_Controller.SS.L1_GETX::total         4761                       (Unspecified)
system.caches.L2Cache_Controller.SS.L1_UPGRADE |        4486     14.85%     14.85% |        4109     13.60%     28.45% |          56      0.19%     28.64% |          28      0.09%     28.73% |         101      0.33%     29.06% |          34      0.11%     29.18% |       21276     70.43%     99.60% |         120      0.40%    100.00% (Unspecified)
system.caches.L2Cache_Controller.SS.L1_UPGRADE::total        30210                       (Unspecified)
system.caches.L2Cache_Controller.SS.L2_Replacement |           8     11.11%     11.11% |          13     18.06%     29.17% |          11     15.28%     44.44% |           7      9.72%     54.17% |          14     19.44%     73.61% |           4      5.56%     79.17% |           6      8.33%     87.50% |           9     12.50%    100.00% (Unspecified)
system.caches.L2Cache_Controller.SS.L2_Replacement::total           72                       (Unspecified)
system.caches.L2Cache_Controller.SS.L2_Replacement_clean |       14365     14.04%     14.04% |       13672     13.37%     27.41% |       12062     11.79%     39.20% |       11345     11.09%     50.29% |       12679     12.39%     62.68% |       13268     12.97%     75.65% |       11322     11.07%     86.72% |       13582     13.28%    100.00% (Unspecified)
system.caches.L2Cache_Controller.SS.L2_Replacement_clean::total       102295                       (Unspecified)
system.caches.L2Cache_Controller.M.L1_GETS |     1341379     12.55%     12.55% |     1346693     12.60%     25.14% |     1329655     12.44%     37.58% |     1332610     12.46%     50.04% |     1334053     12.48%     62.52% |     1332952     12.47%     74.98% |     1334862     12.48%     87.47% |     1339988     12.53%    100.00% (Unspecified)
system.caches.L2Cache_Controller.M.L1_GETS::total     10692192                       (Unspecified)
system.caches.L2Cache_Controller.M.L1_GETX |       13722     17.27%     17.27% |        7432      9.36%     26.63% |        3592      4.52%     31.15% |        7383      9.29%     40.44% |        6171      7.77%     48.21% |       18916     23.81%     72.02% |       10980     13.82%     85.84% |       11248     14.16%    100.00% (Unspecified)
system.caches.L2Cache_Controller.M.L1_GETX::total        79444                       (Unspecified)
system.caches.L2Cache_Controller.M.L2_Replacement |     1906869     12.50%     12.50% |     1906945     12.50%     25.00% |     1907325     12.50%     37.51% |     1906253     12.50%     50.00% |     1906473     12.50%     62.50% |     1906515     12.50%     75.00% |     1906786     12.50%     87.50% |     1906831     12.50%    100.00% (Unspecified)
system.caches.L2Cache_Controller.M.L2_Replacement::total     15253997                       (Unspecified)
system.caches.L2Cache_Controller.M.L2_Replacement_clean |     4940927     12.50%     12.50% |     4941171     12.50%     25.00% |     4941305     12.50%     37.50% |     4940737     12.50%     50.00% |     4940610     12.50%     62.50% |     4940712     12.50%     75.00% |     4940601     12.50%     87.50% |     4940766     12.50%    100.00% (Unspecified)
system.caches.L2Cache_Controller.M.L2_Replacement_clean::total     39526829                       (Unspecified)
system.caches.L2Cache_Controller.M.MEM_Inv |          35     13.01%     13.01% |          32     11.90%     24.91% |          33     12.27%     37.17% |          34     12.64%     49.81% |          33     12.27%     62.08% |          36     13.38%     75.46% |          32     11.90%     87.36% |          34     12.64%    100.00% (Unspecified)
system.caches.L2Cache_Controller.M.MEM_Inv::total          269                       (Unspecified)
system.caches.L2Cache_Controller.MT.L1_GETS |        8370     22.38%     22.38% |        4467     11.94%     34.32% |         573      1.53%     35.85% |         231      0.62%     36.47% |         444      1.19%     37.66% |         262      0.70%     38.36% |       22622     60.48%     98.84% |         433      1.16%    100.00% (Unspecified)
system.caches.L2Cache_Controller.MT.L1_GETS::total        37402                       (Unspecified)
system.caches.L2Cache_Controller.MT.L1_GETX |        1234     91.00%     91.00% |          30      2.21%     93.22% |          10      0.74%     93.95% |          13      0.96%     94.91% |           6      0.44%     95.35% |          13      0.96%     96.31% |          31      2.29%     98.60% |          19      1.40%    100.00% (Unspecified)
system.caches.L2Cache_Controller.MT.L1_GETX::total         1356                       (Unspecified)
system.caches.L2Cache_Controller.MT.L1_PUTX |     8217250     12.51%     12.51% |     8216588     12.51%     25.03% |     8196227     12.48%     37.51% |     8201341     12.49%     50.00% |     8201656     12.49%     62.49% |     8213444     12.51%     74.99% |     8207578     12.50%     87.49% |     8213183     12.51%    100.00% (Unspecified)
system.caches.L2Cache_Controller.MT.L1_PUTX::total     65667267                       (Unspecified)
system.caches.L2Cache_Controller.MT.L2_Replacement |         903     16.44%     16.44% |         555     10.11%     26.55% |         219      3.99%     30.54% |         620     11.29%     41.82% |         433      7.88%     49.71% |        1099     20.01%     69.72% |         731     13.31%     83.03% |         932     16.97%    100.00% (Unspecified)
system.caches.L2Cache_Controller.MT.L2_Replacement::total         5492                       (Unspecified)
system.caches.L2Cache_Controller.MT.L2_Replacement_clean |        2757     13.99%     13.99% |        2930     14.87%     28.86% |        1575      7.99%     36.85% |        2305     11.70%     48.55% |        2456     12.46%     61.01% |        2542     12.90%     73.91% |        2642     13.41%     87.31% |        2500     12.69%    100.00% (Unspecified)
system.caches.L2Cache_Controller.MT.L2_Replacement_clean::total        19707                       (Unspecified)
system.caches.L2Cache_Controller.MT.MEM_Inv |         264     12.57%     12.57% |         264     12.57%     25.13% |         263     12.52%     37.65% |         263     12.52%     50.17% |         262     12.47%     62.64% |         260     12.38%     75.01% |         263     12.52%     87.53% |         262     12.47%    100.00% (Unspecified)
system.caches.L2Cache_Controller.MT.MEM_Inv::total         2101                       (Unspecified)
system.caches.L2Cache_Controller.M_I.L1_GET_INSTR |           8      7.55%      7.55% |          13     12.26%     19.81% |           6      5.66%     25.47% |          24     22.64%     48.11% |           7      6.60%     54.72% |          14     13.21%     67.92% |          20     18.87%     86.79% |          14     13.21%    100.00% (Unspecified)
system.caches.L2Cache_Controller.M_I.L1_GET_INSTR::total          106                       (Unspecified)
system.caches.L2Cache_Controller.M_I.L1_GETS |           7      6.42%      6.42% |           4      3.67%     10.09% |           1      0.92%     11.01% |          15     13.76%     24.77% |          25     22.94%     47.71% |           6      5.50%     53.21% |          16     14.68%     67.89% |          35     32.11%    100.00% (Unspecified)
system.caches.L2Cache_Controller.M_I.L1_GETS::total          109                       (Unspecified)
system.caches.L2Cache_Controller.M_I.L1_GETX |          11     29.73%     29.73% |           1      2.70%     32.43% |           0      0.00%     32.43% |           4     10.81%     43.24% |           1      2.70%     45.95% |           9     24.32%     70.27% |           6     16.22%     86.49% |           5     13.51%    100.00% (Unspecified)
system.caches.L2Cache_Controller.M_I.L1_GETX::total           37                       (Unspecified)
system.caches.L2Cache_Controller.M_I.Mem_Ack |     6866128     12.50%     12.50% |     6865582     12.50%     25.01% |     6862793     12.50%     37.51% |     6861564     12.50%     50.00% |     6862960     12.50%     62.50% |     6864436     12.50%     75.00% |     6862383     12.50%     87.50% |     6864916     12.50%    100.00% (Unspecified)
system.caches.L2Cache_Controller.M_I.Mem_Ack::total     54910762                       (Unspecified)
system.caches.L2Cache_Controller.M_I.MEM_Inv |          35     13.01%     13.01% |          32     11.90%     24.91% |          33     12.27%     37.17% |          34     12.64%     49.81% |          33     12.27%     62.08% |          36     13.38%     75.46% |          32     11.90%     87.36% |          34     12.64%    100.00% (Unspecified)
system.caches.L2Cache_Controller.M_I.MEM_Inv::total          269                       (Unspecified)
system.caches.L2Cache_Controller.MT_I.WB_Data |         915     16.49%     16.49% |         566     10.20%     26.68% |         235      4.23%     30.92% |         633     11.41%     42.32% |         442      7.96%     50.29% |        1107     19.95%     70.23% |         714     12.86%     83.10% |         938     16.90%    100.00% (Unspecified)
system.caches.L2Cache_Controller.MT_I.WB_Data::total         5550                       (Unspecified)
system.caches.L2Cache_Controller.MT_I.Ack_all |         252     12.33%     12.33% |         253     12.38%     24.72% |         247     12.09%     36.81% |         250     12.24%     49.05% |         253     12.38%     61.43% |         252     12.33%     73.76% |         280     13.71%     87.47% |         256     12.53%    100.00% (Unspecified)
system.caches.L2Cache_Controller.MT_I.Ack_all::total         2043                       (Unspecified)
system.caches.L2Cache_Controller.MT_I.MEM_Inv |         264     12.57%     12.57% |         264     12.57%     25.13% |         263     12.52%     37.65% |         263     12.52%     50.17% |         262     12.47%     62.64% |         260     12.38%     75.01% |         263     12.52%     87.53% |         262     12.47%    100.00% (Unspecified)
system.caches.L2Cache_Controller.MT_I.MEM_Inv::total         2101                       (Unspecified)
system.caches.L2Cache_Controller.MCT_I.WB_Data |        1181     17.30%     17.30% |         732     10.72%     28.03% |         328      4.81%     32.83% |         817     11.97%     44.80% |         709     10.39%     55.19% |        1266     18.55%     73.73% |         728     10.67%     84.40% |        1065     15.60%    100.00% (Unspecified)
system.caches.L2Cache_Controller.MCT_I.WB_Data::total         6826                       (Unspecified)
system.caches.L2Cache_Controller.MCT_I.Ack_all |        1576     12.24%     12.24% |        2198     17.06%     29.30% |        1247      9.68%     38.98% |        1488     11.55%     50.53% |        1747     13.56%     64.09% |        1276      9.91%     74.00% |        1914     14.86%     88.86% |        1435     11.14%    100.00% (Unspecified)
system.caches.L2Cache_Controller.MCT_I.Ack_all::total        12881                       (Unspecified)
system.caches.L2Cache_Controller.I_I.Ack |       10672     13.91%     13.91% |        9899     12.90%     26.81% |        8990     11.72%     38.53% |        8370     10.91%     49.44% |       10025     13.07%     62.51% |       10586     13.80%     76.31% |        8870     11.56%     87.87% |        9304     12.13%    100.00% (Unspecified)
system.caches.L2Cache_Controller.I_I.Ack::total        76716                       (Unspecified)
system.caches.L2Cache_Controller.I_I.Ack_all |       14365     14.04%     14.04% |       13672     13.37%     27.41% |       12062     11.79%     39.20% |       11345     11.09%     50.29% |       12679     12.39%     62.68% |       13268     12.97%     75.65% |       11322     11.07%     86.72% |       13582     13.28%    100.00% (Unspecified)
system.caches.L2Cache_Controller.I_I.Ack_all::total       102295                       (Unspecified)
system.caches.L2Cache_Controller.S_I.Ack |           8     11.11%     11.11% |          13     18.06%     29.17% |          11     15.28%     44.44% |           7      9.72%     54.17% |          14     19.44%     73.61% |           4      5.56%     79.17% |           6      8.33%     87.50% |           9     12.50%    100.00% (Unspecified)
system.caches.L2Cache_Controller.S_I.Ack::total           72                       (Unspecified)
system.caches.L2Cache_Controller.S_I.Ack_all |           8     11.11%     11.11% |          13     18.06%     29.17% |          11     15.28%     44.44% |           7      9.72%     54.17% |          14     19.44%     73.61% |           4      5.56%     79.17% |           6      8.33%     87.50% |           9     12.50%    100.00% (Unspecified)
system.caches.L2Cache_Controller.S_I.Ack_all::total           72                       (Unspecified)
system.caches.L2Cache_Controller.ISS.L1_GETS |         292     20.84%     20.84% |         176     12.56%     33.40% |         250     17.84%     51.25% |         116      8.28%     59.53% |         166     11.85%     71.38% |         157     11.21%     82.58% |          27      1.93%     84.51% |         217     15.49%    100.00% (Unspecified)
system.caches.L2Cache_Controller.ISS.L1_GETS::total         1401                       (Unspecified)
system.caches.L2Cache_Controller.ISS.Mem_Data |     6089567     12.50%     12.50% |     6090435     12.50%     25.00% |     6089763     12.50%     37.50% |     6088770     12.50%     50.00% |     6088894     12.50%     62.50% |     6088679     12.50%     75.00% |     6089283     12.50%     87.50% |     6089429     12.50%    100.00% (Unspecified)
system.caches.L2Cache_Controller.ISS.Mem_Data::total     48714820                       (Unspecified)
system.caches.L2Cache_Controller.IS.L1_GET_INSTR |        4676     15.53%     15.53% |        4265     14.16%     29.69% |        3358     11.15%     40.84% |        3426     11.38%     52.22% |        3787     12.58%     64.79% |        3920     13.02%     77.81% |        3318     11.02%     88.83% |        3364     11.17%    100.00% (Unspecified)
system.caches.L2Cache_Controller.IS.L1_GET_INSTR::total        30114                       (Unspecified)
system.caches.L2Cache_Controller.IS.Mem_Data |       14042     14.01%     14.01% |       13373     13.34%     27.35% |       11597     11.57%     38.92% |       11175     11.15%     50.07% |       12418     12.39%     62.46% |       13082     13.05%     75.52% |       11216     11.19%     86.71% |       13324     13.29%    100.00% (Unspecified)
system.caches.L2Cache_Controller.IS.Mem_Data::total       100227                       (Unspecified)
system.caches.L2Cache_Controller.IM.L1_GETX |           0      0.00%      0.00% |           3    100.00%    100.00% |           0      0.00%    100.00% |           0      0.00%    100.00% |           0      0.00%    100.00% |           0      0.00%    100.00% |           0      0.00%    100.00% |           0      0.00%    100.00% (Unspecified)
system.caches.L2Cache_Controller.IM.L1_GETX::total            3                       (Unspecified)
system.caches.L2Cache_Controller.IM.Mem_Data |      778903     12.51%     12.51% |      778158     12.50%     25.01% |      777817     12.49%     37.50% |      778003     12.49%     49.99% |      778032     12.49%     62.49% |      779059     12.51%     75.00% |      778267     12.50%     87.50% |      778547     12.50%    100.00% (Unspecified)
system.caches.L2Cache_Controller.IM.Mem_Data::total      6226786                       (Unspecified)
system.caches.L2Cache_Controller.SS_MB.L1_GETS |           5      0.04%      0.04% |           0      0.00%      0.04% |           0      0.00%      0.04% |           0      0.00%      0.04% |           1      0.01%      0.04% |           0      0.00%      0.04% |       13497     99.96%    100.00% |           0      0.00%    100.00% (Unspecified)
system.caches.L2Cache_Controller.SS_MB.L1_GETS::total        13503                       (Unspecified)
system.caches.L2Cache_Controller.SS_MB.L1_UPGRADE |           3    100.00%    100.00% |           0      0.00%    100.00% |           0      0.00%    100.00% |           0      0.00%    100.00% |           0      0.00%    100.00% |           0      0.00%    100.00% |           0      0.00%    100.00% |           0      0.00%    100.00% (Unspecified)
system.caches.L2Cache_Controller.SS_MB.L1_UPGRADE::total            3                       (Unspecified)
system.caches.L2Cache_Controller.SS_MB.Exclusive_Unblock |        7997     22.87%     22.87% |        4112     11.76%     34.63% |          59      0.17%     34.79% |          29      0.08%     34.88% |         131      0.37%     35.25% |          37      0.11%     35.36% |       22480     64.28%     99.64% |         126      0.36%    100.00% (Unspecified)
system.caches.L2Cache_Controller.SS_MB.Exclusive_Unblock::total        34971                       (Unspecified)
system.caches.L2Cache_Controller.MT_MB.L1_GETS |           3     12.00%     12.00% |          13     52.00%     64.00% |           3     12.00%     76.00% |           2      8.00%     84.00% |           1      4.00%     88.00% |           1      4.00%     92.00% |           1      4.00%     96.00% |           1      4.00%    100.00% (Unspecified)
system.caches.L2Cache_Controller.MT_MB.L1_GETS::total           25                       (Unspecified)
system.caches.L2Cache_Controller.MT_MB.Exclusive_Unblock |     8224805     12.52%     12.52% |     8222748     12.51%     25.03% |     8200837     12.48%     37.51% |     8206779     12.49%     50.00% |     8207156     12.49%     62.49% |     8219619     12.51%     74.99% |     8213423     12.50%     87.49% |     8219231     12.51%    100.00% (Unspecified)
system.caches.L2Cache_Controller.MT_MB.Exclusive_Unblock::total     65714598                       (Unspecified)
system.caches.L2Cache_Controller.MT_IIB.WB_Data |        7996     23.33%     23.33% |        3412      9.96%     33.29% |          56      0.16%     33.45% |          26      0.08%     33.53% |         133      0.39%     33.92% |          35      0.10%     34.02% |       22481     65.61%     99.63% |         128      0.37%    100.00% (Unspecified)
[...]
system.timingCpu0.exec_context.thread_0.statExecutedInstType::SimdSha1Hash2            0      0.00%     71.38% # Class of executed instruction. (Count)
system.timingCpu0.exec_context.thread_0.statExecutedInstType::SimdSha256Hash            0      0.00%     71.38% # Class of executed instruction. (Count)
system.timingCpu0.exec_context.thread_0.statExecutedInstType::SimdSha256Hash2            0      0.00%     71.38% # Class of executed instruction. (Count)
system.timingCpu0.exec_context.thread_0.statExecutedInstType::SimdShaSigma2            0      0.00%     71.38% # Class of executed instruction. (Count)
system.timingCpu0.exec_context.thread_0.statExecutedInstType::SimdShaSigma3            0      0.00%     71.38% # Class of executed instruction. (Count)
system.timingCpu0.exec_context.thread_0.statExecutedInstType::SimdPredAlu            0      0.00%     71.38% # Class of executed instruction. (Count)
system.timingCpu0.exec_context.thread_0.statExecutedInstType::MemRead      6825288      0.31%     71.69% # Class of executed instruction. (Count)
system.timingCpu0.exec_context.thread_0.statExecutedInstType::MemWrite      2794068      0.13%     71.82% # Class of executed instruction. (Count)
system.timingCpu0.exec_context.thread_0.statExecutedInstType::FloatMemRead    491023245     22.50%     94.31% # Class of executed instruction. (Count)
system.timingCpu0.exec_context.thread_0.statExecutedInstType::FloatMemWrite    124101397      5.69%    100.00% # Class of executed instruction. (Count)
system.timingCpu0.exec_context.thread_0.statExecutedInstType::IprAccess            0      0.00%    100.00% # Class of executed instruction. (Count)
system.timingCpu0.exec_context.thread_0.statExecutedInstType::InstPrefetch            0      0.00%    100.00% # Class of executed instruction. (Count)
system.timingCpu0.exec_context.thread_0.statExecutedInstType::total   2182645984                       # Class of executed instruction. (Count)
system.timingCpu0.mmu.dtb.rdAccesses        497988922                       # TLB accesses on read requests (Count)
system.timingCpu0.mmu.dtb.wrAccesses        126911199                       # TLB accesses on write requests (Count)
system.timingCpu0.mmu.dtb.rdMisses             140400                       # TLB misses on read requests (Count)
system.timingCpu0.mmu.dtb.wrMisses              15788                       # TLB misses on write requests (Count)
system.timingCpu0.mmu.dtb.walker.power_state.pwrStateResidencyTicks::UNDEFINED 25316768293500                       # Cumulative time (in ticks) in various power states (Tick)
system.timingCpu0.mmu.itb.rdAccesses                0                       # TLB accesses on read requests (Count)
system.timingCpu0.mmu.itb.wrAccesses       2125450165                       # TLB accesses on write requests (Count)
system.timingCpu0.mmu.itb.rdMisses                  0                       # TLB misses on read requests (Count)
system.timingCpu0.mmu.itb.wrMisses               6430                       # TLB misses on write requests (Count)
system.timingCpu0.mmu.itb.walker.power_state.pwrStateResidencyTicks::UNDEFINED 25316768293500                       # Cumulative time (in ticks) in various power states (Tick)
system.timingCpu0.power_state.numTransitions           32                       # Number of power state transitions (Count)
system.timingCpu0.power_state.ticksClkGated::samples           16                       # Distribution of time spent in the clock gated state (Tick)
system.timingCpu0.power_state.ticksClkGated::mean 853263421.875000                       # Distribution of time spent in the clock gated state (Tick)
system.timingCpu0.power_state.ticksClkGated::stdev 320113461.371286                       # Distribution of time spent in the clock gated state (Tick)
system.timingCpu0.power_state.ticksClkGated::1000-5e+10           16    100.00%    100.00% # Distribution of time spent in the clock gated state (Tick)
system.timingCpu0.power_state.ticksClkGated::min_value     38494750                       # Distribution of time spent in the clock gated state (Tick)
system.timingCpu0.power_state.ticksClkGated::max_value    997782250                       # Distribution of time spent in the clock gated state (Tick)
system.timingCpu0.power_state.ticksClkGated::total           16                       # Distribution of time spent in the clock gated state (Tick)
system.timingCpu0.power_state.pwrStateResidencyTicks::ON 4054749524000                       # Cumulative time (in ticks) in various power states (Tick)
system.timingCpu0.power_state.pwrStateResidencyTicks::CLK_GATED  13652214750                       # Cumulative time (in ticks) in various power states (Tick)
system.timingCpu0.power_state.pwrStateResidencyTicks::OFF 21248366554750                       # Cumulative time (in ticks) in various power states (Tick)
system.timingCpu0.thread_0.numInsts                 0                       # Number of Instructions committed (Count)
system.timingCpu0.thread_0.numOps                   0                       # Number of Ops committed (Count)
system.timingCpu0.thread_0.numMemRefs               0                       # Number of Memory References (Count)
system.timingCpu1.numCycles               20000000000                       # Number of cpu cycles simulated (Cycle)
system.timingCpu1.numWorkItemsStarted               0                       # Number of work items this cpu started (Count)
system.timingCpu1.numWorkItemsCompleted             0                       # Number of work items this cpu completed (Count)
system.timingCpu1.exec_context.thread_0.numInsts   1366369185                       # Number of instructions committed (Count)
system.timingCpu1.exec_context.thread_0.numOps   2170855642                       # Number of ops (including micro ops) committed (Count)
system.timingCpu1.exec_context.thread_0.numIntAluAccesses    799506223                       # Number of integer alu accesses (Count)
system.timingCpu1.exec_context.thread_0.numFpAluAccesses   1985297052                       # Number of float alu accesses (Count)
system.timingCpu1.exec_context.thread_0.numVecAluAccesses            0                       # Number of vector alu accesses (Count)
system.timingCpu1.exec_context.thread_0.numCallsReturns       843487                       # Number of times a function call or return occured (Count)
system.timingCpu1.exec_context.thread_0.numCondCtrlInsts     13652188                       # Number of instructions that are conditional controls (Count)
system.timingCpu1.exec_context.thread_0.numIntInsts    799506223                       # Number of integer instructions (Count)
system.timingCpu1.exec_context.thread_0.numFpInsts   1985297052                       # Number of float instructions (Count)
system.timingCpu1.exec_context.thread_0.numVecInsts            0                       # Number of vector instructions (Count)
system.timingCpu1.exec_context.thread_0.numIntRegReads    808288954                       # Number of times the integer registers were read (Count)
system.timingCpu1.exec_context.thread_0.numIntRegWrites    154581551                       # Number of times the integer registers were written (Count)
system.timingCpu1.exec_context.thread_0.numFpRegReads   3283788699                       # Number of times the floating registers were read (Count)
system.timingCpu1.exec_context.thread_0.numFpRegWrites   1861180535                       # Number of times the floating registers were written (Count)
system.timingCpu1.exec_context.thread_0.numVecRegReads            0                       # Number of times the vector registers were read (Count)
system.timingCpu1.exec_context.thread_0.numVecRegWrites            0                       # Number of times the vector registers were written (Count)
system.timingCpu1.exec_context.thread_0.numVecPredRegReads            0                       # Number of times the predicate registers were read (Count)
system.timingCpu1.exec_context.thread_0.numVecPredRegWrites            0                       # Number of times the predicate registers were written (Count)
system.timingCpu1.exec_context.thread_0.numCCRegReads     72994914                       # Number of times the CC registers were read (Count)
system.timingCpu1.exec_context.thread_0.numCCRegWrites    139599916                       # Number of times the CC registers were written (Count)
system.timingCpu1.exec_context.thread_0.numMiscRegReads    652383537                       # Number of times the Misc registers were read (Count)
system.timingCpu1.exec_context.thread_0.numMiscRegWrites       174655                       # Number of times the Misc registers were written (Count)
system.timingCpu1.exec_context.thread_0.numMemRefs    622283198                       # Number of memory refs (Count)
system.timingCpu1.exec_context.thread_0.numLoadInsts    496107707                       # Number of load instructions (Count)
system.timingCpu1.exec_context.thread_0.numStoreInsts    126175491                       # Number of store instructions (Count)
system.timingCpu1.exec_context.thread_0.numIdleCycles            0                       # Number of idle cycles (Cycle)
system.timingCpu1.exec_context.thread_0.numBusyCycles  20000000000                       # Number of busy cycles (Cycle)
system.timingCpu1.exec_context.thread_0.notIdleFraction            1                       # Percentage of non-idle cycles (Ratio)
system.timingCpu1.exec_context.thread_0.idleFraction            0                       # Percentage of idle cycles (Ratio)
system.timingCpu1.exec_context.thread_0.numBranches     14975987                       # Number of branches fetched (Count)
system.timingCpu1.exec_context.thread_0.statExecutedInstType::No_OpClass       119043      0.01%      0.01% # Class of executed instruction. (Count)
system.timingCpu1.exec_context.thread_0.statExecutedInstType::IntAlu    509972980     23.49%     23.50% # Class of executed instruction. (Count)
system.timingCpu1.exec_context.thread_0.statExecutedInstType::IntMult       119362      0.01%     23.50% # Class of executed instruction. (Count)
system.timingCpu1.exec_context.thread_0.statExecutedInstType::IntDiv       224305      0.01%     23.51% # Class of executed instruction. (Count)
system.timingCpu1.exec_context.thread_0.statExecutedInstType::FloatAdd    205788607      9.48%     32.99% # Class of executed instruction. (Count)
system.timingCpu1.exec_context.thread_0.statExecutedInstType::FloatCmp            0      0.00%     32.99% # Class of executed instruction. (Count)
system.timingCpu1.exec_context.thread_0.statExecutedInstType::FloatCvt          240      0.00%     32.99% # Class of executed instruction. (Count)
system.timingCpu1.exec_context.thread_0.statExecutedInstType::FloatMult            0      0.00%     32.99% # Class of executed instruction. (Count)
system.timingCpu1.exec_context.thread_0.statExecutedInstType::FloatMultAcc            0      0.00%     32.99% # Class of executed instruction. (Count)
system.timingCpu1.exec_context.thread_0.statExecutedInstType::FloatDiv            0      0.00%     32.99% # Class of executed instruction. (Count)
system.timingCpu1.exec_context.thread_0.statExecutedInstType::FloatMisc            0      0.00%     32.99% # Class of executed instruction. (Count)
system.timingCpu1.exec_context.thread_0.statExecutedInstType::FloatSqrt            0      0.00%     32.99% # Class of executed instruction. (Count)
system.timingCpu1.exec_context.thread_0.statExecutedInstType::SimdAdd            0      0.00%     32.99% # Class of executed instruction. (Count)
system.timingCpu1.exec_context.thread_0.statExecutedInstType::SimdAddAcc            0      0.00%     32.99% # Class of executed instruction. (Count)
system.timingCpu1.exec_context.thread_0.statExecutedInstType::SimdAlu        21116      0.00%     32.99% # Class of executed instruction. (Count)
system.timingCpu1.exec_context.thread_0.statExecutedInstType::SimdCmp         1084      0.00%     32.99% # Class of executed instruction. (Count)
system.timingCpu1.exec_context.thread_0.statExecutedInstType::SimdCvt        15454      0.00%     32.99% # Class of executed instruction. (Count)
system.timingCpu1.exec_context.thread_0.statExecutedInstType::SimdMisc        31305      0.00%     33.00% # Class of executed instruction. (Count)
system.timingCpu1.exec_context.thread_0.statExecutedInstType::SimdMult            0      0.00%     33.00% # Class of executed instruction. (Count)
system.timingCpu1.exec_context.thread_0.statExecutedInstType::SimdMultAcc            0      0.00%     33.00% # Class of executed instruction. (Count)
system.timingCpu1.exec_context.thread_0.statExecutedInstType::SimdShift            0      0.00%     33.00% # Class of executed instruction. (Count)
system.timingCpu1.exec_context.thread_0.statExecutedInstType::SimdShiftAcc            0      0.00%     33.00% # Class of executed instruction. (Count)
system.timingCpu1.exec_context.thread_0.statExecutedInstType::SimdDiv            0      0.00%     33.00% # Class of executed instruction. (Count)
system.timingCpu1.exec_context.thread_0.statExecutedInstType::SimdSqrt            0      0.00%     33.00% # Class of executed instruction. (Count)
system.timingCpu1.exec_context.thread_0.statExecutedInstType::SimdFloatAdd    489170169     22.53%     55.53% # Class of executed instruction. (Count)
system.timingCpu1.exec_context.thread_0.statExecutedInstType::SimdFloatAlu            0      0.00%     55.53% # Class of executed instruction. (Count)
system.timingCpu1.exec_context.thread_0.statExecutedInstType::SimdFloatCmp            0      0.00%     55.53% # Class of executed instruction. (Count)
system.timingCpu1.exec_context.thread_0.statExecutedInstType::SimdFloatCvt            0      0.00%     55.53% # Class of executed instruction. (Count)
system.timingCpu1.exec_context.thread_0.statExecutedInstType::SimdFloatDiv      2015672      0.09%     55.62% # Class of executed instruction. (Count)
system.timingCpu1.exec_context.thread_0.statExecutedInstType::SimdFloatMisc            0      0.00%     55.62% # Class of executed instruction. (Count)
system.timingCpu1.exec_context.thread_0.statExecutedInstType::SimdFloatMult    339077486     15.62%     71.24% # Class of executed instruction. (Count)
system.timingCpu1.exec_context.thread_0.statExecutedInstType::SimdFloatMultAcc            0      0.00%     71.24% # Class of executed instruction. (Count)
system.timingCpu1.exec_context.thread_0.statExecutedInstType::SimdFloatSqrt      2015673      0.09%     71.33% # Class of executed instruction. (Count)
system.timingCpu1.exec_context.thread_0.statExecutedInstType::SimdReduceAdd            0      0.00%     71.33% # Class of executed instruction. (Count)
system.timingCpu1.exec_context.thread_0.statExecutedInstType::SimdReduceAlu            0      0.00%     71.33% # Class of executed instruction. (Count)
system.timingCpu1.exec_context.thread_0.statExecutedInstType::SimdReduceCmp            0      0.00%     71.33% # Class of executed instruction. (Count)
system.timingCpu1.exec_context.thread_0.statExecutedInstType::SimdFloatReduceAdd            0      0.00%     71.33% # Class of executed instruction. (Count)
system.timingCpu1.exec_context.thread_0.statExecutedInstType::SimdFloatReduceCmp            0      0.00%     71.33% # Class of executed instruction. (Count)
system.timingCpu1.exec_context.thread_0.statExecutedInstType::SimdAes            0      0.00%     71.33% # Class of executed instruction. (Count)
system.timingCpu1.exec_context.thread_0.statExecutedInstType::SimdAesMix            0      0.00%     71.33% # Class of executed instruction. (Count)
system.timingCpu1.exec_context.thread_0.statExecutedInstType::SimdSha1Hash            0      0.00%     71.33% # Class of executed instruction. (Count)
system.timingCpu1.exec_context.thread_0.statExecutedInstType::SimdSha1Hash2            0      0.00%     71.33% # Class of executed instruction. (Count)
system.timingCpu1.exec_context.thread_0.statExecutedInstType::SimdSha256Hash            0      0.00%     71.33% # Class of executed instruction. (Count)
system.timingCpu1.exec_context.thread_0.statExecutedInstType::SimdSha256Hash2            0      0.00%     71.33% # Class of executed instruction. (Count)
system.timingCpu1.exec_context.thread_0.statExecutedInstType::SimdShaSigma2            0      0.00%     71.33% # Class of executed instruction. (Count)
system.timingCpu1.exec_context.thread_0.statExecutedInstType::SimdShaSigma3            0      0.00%     71.33% # Class of executed instruction. (Count)
system.timingCpu1.exec_context.thread_0.statExecutedInstType::SimdPredAlu            0      0.00%     71.33% # Class of executed instruction. (Count)
system.timingCpu1.exec_context.thread_0.statExecutedInstType::MemRead      5410348      0.25%     71.58% # Class of executed instruction. (Count)
system.timingCpu1.exec_context.thread_0.statExecutedInstType::MemWrite      2068266      0.10%     71.68% # Class of executed instruction. (Count)
system.timingCpu1.exec_context.thread_0.statExecutedInstType::FloatMemRead    490697359     22.60%     94.28% # Class of executed instruction. (Count)
system.timingCpu1.exec_context.thread_0.statExecutedInstType::FloatMemWrite    124107225      5.72%    100.00% # Class of executed instruction. (Count)
system.timingCpu1.exec_context.thread_0.statExecutedInstType::IprAccess            0      0.00%    100.00% # Class of executed instruction. (Count)
system.timingCpu1.exec_context.thread_0.statExecutedInstType::InstPrefetch            0      0.00%    100.00% # Class of executed instruction. (Count)
system.timingCpu1.exec_context.thread_0.statExecutedInstType::total   2170855694                       # Class of executed instruction. (Count)
system.timingCpu1.mmu.dtb.rdAccesses        496249216                       # TLB accesses on read requests (Count)
system.timingCpu1.mmu.dtb.wrAccesses        126191718                       # TLB accesses on write requests (Count)
system.timingCpu1.mmu.dtb.rdMisses             141790                       # TLB misses on read requests (Count)
system.timingCpu1.mmu.dtb.wrMisses              16348                       # TLB misses on write requests (Count)
system.timingCpu1.mmu.dtb.walker.power_state.pwrStateResidencyTicks::UNDEFINED 25316768293500                       # Cumulative time (in ticks) in various power states (Tick)
system.timingCpu1.mmu.itb.rdAccesses                0                       # TLB accesses on read requests (Count)
system.timingCpu1.mmu.itb.wrAccesses       2119902498                       # TLB accesses on write requests (Count)
system.timingCpu1.mmu.itb.rdMisses                  0                       # TLB misses on read requests (Count)
system.timingCpu1.mmu.itb.wrMisses               7742                       # TLB misses on write requests (Count)
system.timingCpu1.mmu.itb.walker.power_state.pwrStateResidencyTicks::UNDEFINED 25316768293500                       # Cumulative time (in ticks) in various power states (Tick)
system.timingCpu1.power_state.pwrStateResidencyTicks::OFF 25316768293500                       # Cumulative time (in ticks) in various power states (Tick)
system.timingCpu1.thread_0.numInsts                 0                       # Number of Instructions committed (Count)
system.timingCpu1.thread_0.numOps                   0                       # Number of Ops committed (Count)
system.timingCpu1.thread_0.numMemRefs               0                       # Number of Memory References (Count)
system.workload.inst.arm                            0                       # number of arm instructions executed (Count)
system.workload.inst.quiesce                        0                       # number of quiesce instructions executed (Count)

---------- End Simulation Statistics   ----------
