
---------- Begin Simulation Statistics ----------
simSeconds                                          2                       # Number of seconds simulated (Second)
simTicks                                 2000000000000                       # Number of ticks simulated (Tick)
finalTick                                19996274303000                       # Number of ticks from beginning of simulation (restored from checkpoints and never reset) (Tick)
simFreq                                  1000000000000                       # The number of ticks per simulated second ((Tick/Second))
hostSeconds                                  13337.67                       # Real time elapsed on the host (Second)
hostTickRate                                149951222                       # The number of ticks simulated per host second (ticks/s) ((Tick/Second))
hostMemory                                    8242512                       # Number of bytes of host memory used (Byte)
simInsts                                   6101342735                       # Number of instructions simulated (Count)
simOps                                     9601769513                       # Number of ops (including micro ops) simulated (Count)
hostInstRate                                   457452                       # Simulator instruction rate (inst/s) ((Count/Second))
hostOpRate                                     719899                       # Simulator op (including micro ops) rate (op/s) ((Count/Second))
system.atomicCpu0.numCycles                         0                       # Number of cpu cycles simulated (Cycle)
system.atomicCpu0.numWorkItemsStarted               0                       # Number of work items this cpu started (Count)
system.atomicCpu0.numWorkItemsCompleted             0                       # Number of work items this cpu completed (Count)
system.atomicCpu0.exec_context.thread_0.numInsts            0                       # Number of instructions committed (Count)
system.atomicCpu0.exec_context.thread_0.numOps            0                       # Number of ops (including micro ops) committed (Count)
system.atomicCpu0.exec_context.thread_0.numIntAluAccesses            0                       # Number of integer alu accesses (Count)
system.atomicCpu0.exec_context.thread_0.numFpAluAccesses            0                       # Number of float alu accesses (Count)
system.atomicCpu0.exec_context.thread_0.numVecAluAccesses            0                       # Number of vector alu accesses (Count)
system.atomicCpu0.exec_context.thread_0.numCallsReturns            0                       # Number of times a function call or return occured (Count)
system.atomicCpu0.exec_context.thread_0.numCondCtrlInsts            0                       # Number of instructions that are conditional controls (Count)
system.atomicCpu0.exec_context.thread_0.numIntInsts            0                       # Number of integer instructions (Count)
system.atomicCpu0.exec_context.thread_0.numFpInsts            0                       # Number of float instructions (Count)
system.atomicCpu0.exec_context.thread_0.numVecInsts            0                       # Number of vector instructions (Count)
system.atomicCpu0.exec_context.thread_0.numIntRegReads            0                       # Number of times the integer registers were read (Count)
system.atomicCpu0.exec_context.thread_0.numIntRegWrites            0                       # Number of times the integer registers were written (Count)
system.atomicCpu0.exec_context.thread_0.numFpRegReads            0                       # Number of times the floating registers were read (Count)
system.atomicCpu0.exec_context.thread_0.numFpRegWrites            0                       # Number of times the floating registers were written (Count)
system.atomicCpu0.exec_context.thread_0.numVecRegReads            0                       # Number of times the vector registers were read (Count)
system.atomicCpu0.exec_context.thread_0.numVecRegWrites            0                       # Number of times the vector registers were written (Count)
system.atomicCpu0.exec_context.thread_0.numVecPredRegReads            0                       # Number of times the predicate registers were read (Count)
system.atomicCpu0.exec_context.thread_0.numVecPredRegWrites            0                       # Number of times the predicate registers were written (Count)
system.atomicCpu0.exec_context.thread_0.numMiscRegReads            0                       # Number of times the Misc registers were read (Count)
system.atomicCpu0.exec_context.thread_0.numMiscRegWrites            0                       # Number of times the Misc registers were written (Count)
system.atomicCpu0.exec_context.thread_0.numMemRefs            0                       # Number of memory refs (Count)
system.atomicCpu0.exec_context.thread_0.numLoadInsts            0                       # Number of load instructions (Count)
system.atomicCpu0.exec_context.thread_0.numStoreInsts            0                       # Number of store instructions (Count)
system.atomicCpu0.exec_context.thread_0.numIdleCycles            0                       # Number of idle cycles (Cycle)
system.atomicCpu0.exec_context.thread_0.numBusyCycles            0                       # Number of busy cycles (Cycle)
system.atomicCpu0.exec_context.thread_0.notIdleFraction            0                       # Percentage of non-idle cycles (Ratio)
system.atomicCpu0.exec_context.thread_0.idleFraction            1                       # Percentage of idle cycles (Ratio)
system.atomicCpu0.exec_context.thread_0.statExecutedInstType::No_OpClass            0                       # Class of executed instruction. (Count)
system.atomicCpu0.exec_context.thread_0.statExecutedInstType::IntAlu            0                       # Class of executed instruction. (Count)
system.atomicCpu0.exec_context.thread_0.statExecutedInstType::IntMult            0                       # Class of executed instruction. (Count)
system.atomicCpu0.exec_context.thread_0.statExecutedInstType::IntDiv            0                       # Class of executed instruction. (Count)
system.atomicCpu0.exec_context.thread_0.statExecutedInstType::FloatAdd            0                       # Class of executed instruction. (Count)
system.atomicCpu0.exec_context.thread_0.statExecutedInstType::FloatCmp            0                       # Class of executed instruction. (Count)
system.atomicCpu0.exec_context.thread_0.statExecutedInstType::FloatCvt            0                       # Class of executed instruction. (Count)
system.atomicCpu0.exec_context.thread_0.statExecutedInstType::FloatMult            0                       # Class of executed instruction. (Count)
system.atomicCpu0.exec_context.thread_0.statExecutedInstType::FloatMultAcc            0                       # Class of executed instruction. (Count)
system.atomicCpu0.exec_context.thread_0.statExecutedInstType::FloatDiv            0                       # Class of executed instruction. (Count)
system.atomicCpu0.exec_context.thread_0.statExecutedInstType::FloatMisc            0                       # Class of executed instruction. (Count)
system.atomicCpu0.exec_context.thread_0.statExecutedInstType::FloatSqrt            0                       # Class of executed instruction. (Count)
system.atomicCpu0.exec_context.thread_0.statExecutedInstType::SimdAdd            0                       # Class of executed instruction. (Count)
system.atomicCpu0.exec_context.thread_0.statExecutedInstType::SimdAddAcc            0                       # Class of executed instruction. (Count)
system.atomicCpu0.exec_context.thread_0.statExecutedInstType::SimdAlu            0                       # Class of executed instruction. (Count)
system.atomicCpu0.exec_context.thread_0.statExecutedInstType::SimdCmp            0                       # Class of executed instruction. (Count)
system.atomicCpu0.exec_context.thread_0.statExecutedInstType::SimdCvt            0                       # Class of executed instruction. (Count)
system.atomicCpu0.exec_context.thread_0.statExecutedInstType::SimdMisc            0                       # Class of executed instruction. (Count)
system.atomicCpu0.exec_context.thread_0.statExecutedInstType::SimdMult            0                       # Class of executed instruction. (Count)
system.atomicCpu0.exec_context.thread_0.statExecutedInstType::SimdMultAcc            0                       # Class of executed instruction. (Count)
system.atomicCpu0.exec_context.thread_0.statExecutedInstType::SimdShift            0                       # Class of executed instruction. (Count)
system.atomicCpu0.exec_context.thread_0.statExecutedInstType::SimdShiftAcc            0                       # Class of executed instruction. (Count)
system.atomicCpu0.exec_context.thread_0.statExecutedInstType::SimdDiv            0                       # Class of executed instruction. (Count)
system.atomicCpu0.exec_context.thread_0.statExecutedInstType::SimdSqrt            0                       # Class of executed instruction. (Count)
system.atomicCpu0.exec_context.thread_0.statExecutedInstType::SimdFloatAdd            0                       # Class of executed instruction. (Count)
system.atomicCpu0.exec_context.thread_0.statExecutedInstType::SimdFloatAlu            0                       # Class of executed instruction. (Count)
system.atomicCpu0.exec_context.thread_0.statExecutedInstType::SimdFloatCmp            0                       # Class of executed instruction. (Count)
system.atomicCpu0.exec_context.thread_0.statExecutedInstType::SimdFloatCvt            0                       # Class of executed instruction. (Count)
system.atomicCpu0.exec_context.thread_0.statExecutedInstType::SimdFloatDiv            0                       # Class of executed instruction. (Count)
system.atomicCpu0.exec_context.thread_0.statExecutedInstType::SimdFloatMisc            0                       # Class of executed instruction. (Count)
system.atomicCpu0.exec_context.thread_0.statExecutedInstType::SimdFloatMult            0                       # Class of executed instruction. (Count)
system.atomicCpu0.exec_context.thread_0.statExecutedInstType::SimdFloatMultAcc            0                       # Class of executed instruction. (Count)
system.atomicCpu0.exec_context.thread_0.statExecutedInstType::SimdFloatSqrt            0                       # Class of executed instruction. (Count)
system.atomicCpu0.exec_context.thread_0.statExecutedInstType::SimdReduceAdd            0                       # Class of executed instruction. (Count)
system.atomicCpu0.exec_context.thread_0.statExecutedInstType::SimdReduceAlu            0                       # Class of executed instruction. (Count)
system.atomicCpu0.exec_context.thread_0.statExecutedInstType::SimdReduceCmp            0                       # Class of executed instruction. (Count)
system.atomicCpu0.exec_context.thread_0.statExecutedInstType::SimdFloatReduceAdd            0                       # Class of executed instruction. (Count)
system.atomicCpu0.exec_context.thread_0.statExecutedInstType::SimdFloatReduceCmp            0                       # Class of executed instruction. (Count)
system.atomicCpu0.exec_context.thread_0.statExecutedInstType::SimdAes            0                       # Class of executed instruction. (Count)
system.atomicCpu0.exec_context.thread_0.statExecutedInstType::SimdAesMix            0                       # Class of executed instruction. (Count)
system.atomicCpu0.exec_context.thread_0.statExecutedInstType::SimdSha1Hash            0                       # Class of executed instruction. (Count)
system.atomicCpu0.exec_context.thread_0.statExecutedInstType::SimdSha1Hash2            0                       # Class of executed instruction. (Count)
system.atomicCpu0.exec_context.thread_0.statExecutedInstType::SimdSha256Hash            0                       # Class of executed instruction. (Count)
system.atomicCpu0.exec_context.thread_0.statExecutedInstType::SimdSha256Hash2            0                       # Class of executed instruction. (Count)
system.atomicCpu0.exec_context.thread_0.statExecutedInstType::SimdShaSigma2            0                       # Class of executed instruction. (Count)
system.atomicCpu0.exec_context.thread_0.statExecutedInstType::SimdShaSigma3            0                       # Class of executed instruction. (Count)
system.atomicCpu0.exec_context.thread_0.statExecutedInstType::SimdPredAlu            0                       # Class of executed instruction. (Count)
system.atomicCpu0.exec_context.thread_0.statExecutedInstType::MemRead            0                       # Class of executed instruction. (Count)
system.atomicCpu0.exec_context.thread_0.statExecutedInstType::MemWrite            0                       # Class of executed instruction. (Count)
system.atomicCpu0.exec_context.thread_0.statExecutedInstType::FloatMemRead            0                       # Class of executed instruction. (Count)
system.atomicCpu0.exec_context.thread_0.statExecutedInstType::FloatMemWrite            0                       # Class of executed instruction. (Count)
system.atomicCpu0.exec_context.thread_0.statExecutedInstType::IprAccess            0                       # Class of executed instruction. (Count)
system.atomicCpu0.exec_context.thread_0.statExecutedInstType::InstPrefetch            0                       # Class of executed instruction. (Count)
system.atomicCpu0.exec_context.thread_0.statExecutedInstType::total            0                       # Class of executed instruction. (Count)
system.atomicCpu0.mmu.dtb.rdAccesses                0                       # TLB accesses on read requests (Count)
system.atomicCpu0.mmu.dtb.wrAccesses                0                       # TLB accesses on write requests (Count)
system.atomicCpu0.mmu.dtb.rdMisses                  0                       # TLB misses on read requests (Count)
system.atomicCpu0.mmu.dtb.wrMisses                  0                       # TLB misses on write requests (Count)
system.atomicCpu0.mmu.dtb.walker.power_state.pwrStateResidencyTicks::UNDEFINED 19996274303000                       # Cumulative time (in ticks) in various power states (Tick)
system.atomicCpu0.mmu.itb.rdAccesses                0                       # TLB accesses on read requests (Count)
system.atomicCpu0.mmu.itb.wrAccesses                0                       # TLB accesses on write requests (Count)
system.atomicCpu0.mmu.itb.rdMisses                  0                       # TLB misses on read requests (Count)
system.atomicCpu0.mmu.itb.wrMisses                  0                       # TLB misses on write requests (Count)
system.atomicCpu0.mmu.itb.walker.power_state.pwrStateResidencyTicks::UNDEFINED 19996274303000                       # Cumulative time (in ticks) in various power states (Tick)
system.atomicCpu0.power_state.pwrStateResidencyTicks::OFF 19996274303000                       # Cumulative time (in ticks) in various power states (Tick)
system.atomicCpu0.thread_0.numInsts                 0                       # Number of Instructions committed (Count)
system.atomicCpu0.thread_0.numOps                   0                       # Number of Ops committed (Count)
system.atomicCpu0.thread_0.numMemRefs               0                       # Number of Memory References (Count)
system.atomicCpu1.numCycles                         0                       # Number of cpu cycles simulated (Cycle)
system.atomicCpu1.numWorkItemsStarted               0                       # Number of work items this cpu started (Count)
system.atomicCpu1.numWorkItemsCompleted             0                       # Number of work items this cpu completed (Count)
system.atomicCpu1.exec_context.thread_0.numInsts            0                       # Number of instructions committed (Count)
system.atomicCpu1.exec_context.thread_0.numOps            0                       # Number of ops (including micro ops) committed (Count)
system.atomicCpu1.exec_context.thread_0.numIntAluAccesses            0                       # Number of integer alu accesses (Count)
system.atomicCpu1.exec_context.thread_0.numFpAluAccesses            0                       # Number of float alu accesses (Count)
system.atomicCpu1.exec_context.thread_0.numVecAluAccesses            0                       # Number of vector alu accesses (Count)
system.atomicCpu1.exec_context.thread_0.numCallsReturns            0                       # Number of times a function call or return occured (Count)
system.atomicCpu1.exec_context.thread_0.numCondCtrlInsts            0                       # Number of instructions that are conditional controls (Count)
system.atomicCpu1.exec_context.thread_0.numIntInsts            0                       # Number of integer instructions (Count)
system.atomicCpu1.exec_context.thread_0.numFpInsts            0                       # Number of float instructions (Count)
system.atomicCpu1.exec_context.thread_0.numVecInsts            0                       # Number of vector instructions (Count)
system.atomicCpu1.exec_context.thread_0.numIntRegReads            0                       # Number of times the integer registers were read (Count)
system.atomicCpu1.exec_context.thread_0.numIntRegWrites            0                       # Number of times the integer registers were written (Count)
system.atomicCpu1.exec_context.thread_0.numFpRegReads            0                       # Number of times the floating registers were read (Count)
system.atomicCpu1.exec_context.thread_0.numFpRegWrites            0                       # Number of times the floating registers were written (Count)
system.atomicCpu1.exec_context.thread_0.numVecRegReads            0                       # Number of times the vector registers were read (Count)
system.atomicCpu1.exec_context.thread_0.numVecRegWrites            0                       # Number of times the vector registers were written (Count)
system.atomicCpu1.exec_context.thread_0.numVecPredRegReads            0                       # Number of times the predicate registers were read (Count)
system.atomicCpu1.exec_context.thread_0.numVecPredRegWrites            0                       # Number of times the predicate registers were written (Count)
system.atomicCpu1.exec_context.thread_0.numMiscRegReads            0                       # Number of times the Misc registers were read (Count)
system.atomicCpu1.exec_context.thread_0.numMiscRegWrites            0                       # Number of times the Misc registers were written (Count)
system.atomicCpu1.exec_context.thread_0.numMemRefs            0                       # Number of memory refs (Count)
system.atomicCpu1.exec_context.thread_0.numLoadInsts            0                       # Number of load instructions (Count)
system.atomicCpu1.exec_context.thread_0.numStoreInsts            0                       # Number of store instructions (Count)
system.atomicCpu1.exec_context.thread_0.numIdleCycles            0                       # Number of idle cycles (Cycle)
system.atomicCpu1.exec_context.thread_0.numBusyCycles            0                       # Number of busy cycles (Cycle)
system.atomicCpu1.exec_context.thread_0.notIdleFraction            0                       # Percentage of non-idle cycles (Ratio)
system.atomicCpu1.exec_context.thread_0.idleFraction            1                       # Percentage of idle cycles (Ratio)
system.atomicCpu1.exec_context.thread_0.statExecutedInstType::No_OpClass            0                       # Class of executed instruction. (Count)
system.atomicCpu1.exec_context.thread_0.statExecutedInstType::IntAlu            0                       # Class of executed instruction. (Count)
system.atomicCpu1.exec_context.thread_0.statExecutedInstType::IntMult            0                       # Class of executed instruction. (Count)
system.atomicCpu1.exec_context.thread_0.statExecutedInstType::IntDiv            0                       # Class of executed instruction. (Count)
system.atomicCpu1.exec_context.thread_0.statExecutedInstType::FloatAdd            0                       # Class of executed instruction. (Count)
system.atomicCpu1.exec_context.thread_0.statExecutedInstType::FloatCmp            0                       # Class of executed instruction. (Count)
system.atomicCpu1.exec_context.thread_0.statExecutedInstType::FloatCvt            0                       # Class of executed instruction. (Count)
system.atomicCpu1.exec_context.thread_0.statExecutedInstType::FloatMult            0                       # Class of executed instruction. (Count)
system.atomicCpu1.exec_context.thread_0.statExecutedInstType::FloatMultAcc            0                       # Class of executed instruction. (Count)
system.atomicCpu1.exec_context.thread_0.statExecutedInstType::FloatDiv            0                       # Class of executed instruction. (Count)
system.atomicCpu1.exec_context.thread_0.statExecutedInstType::FloatMisc            0                       # Class of executed instruction. (Count)
system.atomicCpu1.exec_context.thread_0.statExecutedInstType::FloatSqrt            0                       # Class of executed instruction. (Count)
system.atomicCpu1.exec_context.thread_0.statExecutedInstType::SimdAdd            0                       # Class of executed instruction. (Count)
system.atomicCpu1.exec_context.thread_0.statExecutedInstType::SimdAddAcc            0                       # Class of executed instruction. (Count)
system.atomicCpu1.exec_context.thread_0.statExecutedInstType::SimdAlu            0                       # Class of executed instruction. (Count)
system.atomicCpu1.exec_context.thread_0.statExecutedInstType::SimdCmp            0                       # Class of executed instruction. (Count)
system.atomicCpu1.exec_context.thread_0.statExecutedInstType::SimdCvt            0                       # Class of executed instruction. (Count)
system.atomicCpu1.exec_context.thread_0.statExecutedInstType::SimdMisc            0                       # Class of executed instruction. (Count)
system.atomicCpu1.exec_context.thread_0.statExecutedInstType::SimdMult            0                       # Class of executed instruction. (Count)
system.atomicCpu1.exec_context.thread_0.statExecutedInstType::SimdMultAcc            0                       # Class of executed instruction. (Count)
system.atomicCpu1.exec_context.thread_0.statExecutedInstType::SimdShift            0                       # Class of executed instruction. (Count)
system.atomicCpu1.exec_context.thread_0.statExecutedInstType::SimdShiftAcc            0                       # Class of executed instruction. (Count)
system.atomicCpu1.exec_context.thread_0.statExecutedInstType::SimdDiv            0                       # Class of executed instruction. (Count)
system.atomicCpu1.exec_context.thread_0.statExecutedInstType::SimdSqrt            0                       # Class of executed instruction. (Count)
system.atomicCpu1.exec_context.thread_0.statExecutedInstType::SimdFloatAdd            0                       # Class of executed instruction. (Count)
system.atomicCpu1.exec_context.thread_0.statExecutedInstType::SimdFloatAlu            0                       # Class of executed instruction. (Count)
system.atomicCpu1.exec_context.thread_0.statExecutedInstType::SimdFloatCmp            0                       # Class of executed instruction. (Count)
system.atomicCpu1.exec_context.thread_0.statExecutedInstType::SimdFloatCvt            0                       # Class of executed instruction. (Count)
system.atomicCpu1.exec_context.thread_0.statExecutedInstType::SimdFloatDiv            0                       # Class of executed instruction. (Count)
system.atomicCpu1.exec_context.thread_0.statExecutedInstType::SimdFloatMisc            0                       # Class of executed instruction. (Count)
system.atomicCpu1.exec_context.thread_0.statExecutedInstType::SimdFloatMult            0                       # Class of executed instruction. (Count)
system.atomicCpu1.exec_context.thread_0.statExecutedInstType::SimdFloatMultAcc            0                       # Class of executed instruction. (Count)
system.atomicCpu1.exec_context.thread_0.statExecutedInstType::SimdFloatSqrt            0                       # Class of executed instruction. (Count)
system.atomicCpu1.exec_context.thread_0.statExecutedInstType::SimdReduceAdd            0                       # Class of executed instruction. (Count)
system.atomicCpu1.exec_context.thread_0.statExecutedInstType::SimdReduceAlu            0                       # Class of executed instruction. (Count)
system.atomicCpu1.exec_context.thread_0.statExecutedInstType::SimdReduceCmp            0                       # Class of executed instruction. (Count)
system.atomicCpu1.exec_context.thread_0.statExecutedInstType::SimdFloatReduceAdd            0                       # Class of executed instruction. (Count)
system.atomicCpu1.exec_context.thread_0.statExecutedInstType::SimdFloatReduceCmp            0                       # Class of executed instruction. (Count)
system.atomicCpu1.exec_context.thread_0.statExecutedInstType::SimdAes            0                       # Class of executed instruction. (Count)
system.atomicCpu1.exec_context.thread_0.statExecutedInstType::SimdAesMix            0                       # Class of executed instruction. (Count)
system.atomicCpu1.exec_context.thread_0.statExecutedInstType::SimdSha1Hash            0                       # Class of executed instruction. (Count)
system.atomicCpu1.exec_context.thread_0.statExecutedInstType::SimdSha1Hash2            0                       # Class of executed instruction. (Count)
system.atomicCpu1.exec_context.thread_0.statExecutedInstType::SimdSha256Hash            0                       # Class of executed instruction. (Count)
system.atomicCpu1.exec_context.thread_0.statExecutedInstType::SimdSha256Hash2            0                       # Class of executed instruction. (Count)
system.atomicCpu1.exec_context.thread_0.statExecutedInstType::SimdShaSigma2            0                       # Class of executed instruction. (Count)
system.atomicCpu1.exec_context.thread_0.statExecutedInstType::SimdShaSigma3            0                       # Class of executed instruction. (Count)
system.atomicCpu1.exec_context.thread_0.statExecutedInstType::SimdPredAlu            0                       # Class of executed instruction. (Count)
system.atomicCpu1.exec_context.thread_0.statExecutedInstType::MemRead            0                       # Class of executed instruction. (Count)
system.atomicCpu1.exec_context.thread_0.statExecutedInstType::MemWrite            0                       # Class of executed instruction. (Count)
system.atomicCpu1.exec_context.thread_0.statExecutedInstType::FloatMemRead            0                       # Class of executed instruction. (Count)
system.atomicCpu1.exec_context.thread_0.statExecutedInstType::FloatMemWrite            0                       # Class of executed instruction. (Count)
system.atomicCpu1.exec_context.thread_0.statExecutedInstType::IprAccess            0                       # Class of executed instruction. (Count)
system.atomicCpu1.exec_context.thread_0.statExecutedInstType::InstPrefetch            0                       # Class of executed instruction. (Count)
system.atomicCpu1.exec_context.thread_0.statExecutedInstType::total            0                       # Class of executed instruction. (Count)
system.atomicCpu1.mmu.dtb.rdAccesses                0                       # TLB accesses on read requests (Count)
system.atomicCpu1.mmu.dtb.wrAccesses                0                       # TLB accesses on write requests (Count)
system.atomicCpu1.mmu.dtb.rdMisses                  0                       # TLB misses on read requests (Count)
system.atomicCpu1.mmu.dtb.wrMisses                  0                       # TLB misses on write requests (Count)
system.atomicCpu1.mmu.dtb.walker.power_state.pwrStateResidencyTicks::UNDEFINED 19996274303000                       # Cumulative time (in ticks) in various power states (Tick)
system.atomicCpu1.mmu.itb.rdAccesses                0                       # TLB accesses on read requests (Count)
system.atomicCpu1.mmu.itb.wrAccesses                0                       # TLB accesses on write requests (Count)
system.atomicCpu1.mmu.itb.rdMisses                  0                       # TLB misses on read requests (Count)
system.atomicCpu1.mmu.itb.wrMisses                  0                       # TLB misses on write requests (Count)
system.atomicCpu1.mmu.itb.walker.power_state.pwrStateResidencyTicks::UNDEFINED 19996274303000                       # Cumulative time (in ticks) in various power states (Tick)
system.atomicCpu1.power_state.pwrStateResidencyTicks::OFF 19996274303000                       # Cumulative time (in ticks) in various power states (Tick)
system.atomicCpu1.thread_0.numInsts                 0                       # Number of Instructions committed (Count)
system.atomicCpu1.thread_0.numOps                   0                       # Number of Ops committed (Count)
system.atomicCpu1.thread_0.numMemRefs               0                       # Number of Memory References (Count)
system.caches.delayHistogram::bucket_size           64                       # delay histogram for all message (Unspecified)
system.caches.delayHistogram::max_bucket          639                       # delay histogram for all message (Unspecified)
system.caches.delayHistogram::samples        34731142                       # delay histogram for all message (Unspecified)
system.caches.delayHistogram::mean           1.129119                       # delay histogram for all message (Unspecified)
system.caches.delayHistogram::stdev          2.791822                       # delay histogram for all message (Unspecified)
system.caches.delayHistogram             |    34731135    100.00%    100.00% |           4      0.00%    100.00% |           0      0.00%    100.00% |           0      0.00%    100.00% |           0      0.00%    100.00% |           2      0.00%    100.00% |           1      0.00%    100.00% |           0      0.00%    100.00% |           0      0.00%    100.00% |           0      0.00%    100.00% # delay histogram for all message (Unspecified)
system.caches.delayHistogram::total          34731142                       # delay histogram for all message (Unspecified)
system.caches.m_outstandReqHistSeqr::bucket_size            1                       (Unspecified)
system.caches.m_outstandReqHistSeqr::max_bucket            9                       (Unspecified)
system.caches.m_outstandReqHistSeqr::samples   6734292537                       (Unspecified)
system.caches.m_outstandReqHistSeqr::mean            1                       (Unspecified)
system.caches.m_outstandReqHistSeqr::gmean            1                       (Unspecified)
system.caches.m_outstandReqHistSeqr      |           0      0.00%      0.00% |  6734292537    100.00%    100.00% |           0      0.00%    100.00% |           0      0.00%    100.00% |           0      0.00%    100.00% |           0      0.00%    100.00% |           0      0.00%    100.00% |           0      0.00%    100.00% |           0      0.00%    100.00% |           0      0.00%    100.00% (Unspecified)
system.caches.m_outstandReqHistSeqr::total   6734292537                       (Unspecified)
system.caches.m_latencyHistSeqr::bucket_size          512                       (Unspecified)
system.caches.m_latencyHistSeqr::max_bucket         5119                       (Unspecified)
system.caches.m_latencyHistSeqr::samples   6734292535                       (Unspecified)
system.caches.m_latencyHistSeqr::mean        1.375377                       (Unspecified)
system.caches.m_latencyHistSeqr::gmean       1.004558                       (Unspecified)
system.caches.m_latencyHistSeqr::stdev      15.821163                       (Unspecified)
system.caches.m_latencyHistSeqr          |  6732619192     99.98%     99.98% |     1479491      0.02%    100.00% |       70903      0.00%    100.00% |      107980      0.00%    100.00% |       12549      0.00%    100.00% |        2420      0.00%    100.00% |           0      0.00%    100.00% |           0      0.00%    100.00% |           0      0.00%    100.00% |           0      0.00%    100.00% (Unspecified)
system.caches.m_latencyHistSeqr::total     6734292535                       (Unspecified)
system.caches.m_hitLatencyHistSeqr::bucket_size            1                       (Unspecified)
system.caches.m_hitLatencyHistSeqr::max_bucket            9                       (Unspecified)
system.caches.m_hitLatencyHistSeqr::samples   6729179470                       (Unspecified)
system.caches.m_hitLatencyHistSeqr::mean            1                       (Unspecified)
system.caches.m_hitLatencyHistSeqr::gmean            1                       (Unspecified)
system.caches.m_hitLatencyHistSeqr       |           0      0.00%      0.00% |  6729179470    100.00%    100.00% |           0      0.00%    100.00% |           0      0.00%    100.00% |           0      0.00%    100.00% |           0      0.00%    100.00% |           0      0.00%    100.00% |           0      0.00%    100.00% |           0      0.00%    100.00% |           0      0.00%    100.00% (Unspecified)
system.caches.m_hitLatencyHistSeqr::total   6729179470                       (Unspecified)
system.caches.m_missLatencyHistSeqr::bucket_size          512                       (Unspecified)
system.caches.m_missLatencyHistSeqr::max_bucket         5119                       (Unspecified)
system.caches.m_missLatencyHistSeqr::samples      5113065                       (Unspecified)
system.caches.m_missLatencyHistSeqr::mean   495.399841                       (Unspecified)
system.caches.m_missLatencyHistSeqr::gmean   399.418857                       (Unspecified)
system.caches.m_missLatencyHistSeqr::stdev   292.284986                       (Unspecified)
system.caches.m_missLatencyHistSeqr      |     3439722     67.27%     67.27% |     1479491     28.94%     96.21% |       70903      1.39%     97.60% |      107980      2.11%     99.71% |       12549      0.25%     99.95% |        2420      0.05%    100.00% |           0      0.00%    100.00% |           0      0.00%    100.00% |           0      0.00%    100.00% |           0      0.00%    100.00% (Unspecified)
system.caches.m_missLatencyHistSeqr::total      5113065                       (Unspecified)
system.caches.delayVCHist.vnet_0::bucket_size           64                       # delay histogram for vnet_0 (Unspecified)
system.caches.delayVCHist.vnet_0::max_bucket          639                       # delay histogram for vnet_0 (Unspecified)
system.caches.delayVCHist.vnet_0::samples     15006165                       # delay histogram for vnet_0 (Unspecified)
system.caches.delayVCHist.vnet_0::mean       2.612805                       # delay histogram for vnet_0 (Unspecified)
system.caches.delayVCHist.vnet_0::stdev      3.763030                       # delay histogram for vnet_0 (Unspecified)
system.caches.delayVCHist.vnet_0         |    15006158    100.00%    100.00% |           4      0.00%    100.00% |           0      0.00%    100.00% |           0      0.00%    100.00% |           0      0.00%    100.00% |           2      0.00%    100.00% |           1      0.00%    100.00% |           0      0.00%    100.00% |           0      0.00%    100.00% |           0      0.00%    100.00% # delay histogram for vnet_0 (Unspecified)
system.caches.delayVCHist.vnet_0::total      15006165                       # delay histogram for vnet_0 (Unspecified)
system.caches.delayVCHist.vnet_1::bucket_size            1                       # delay histogram for vnet_1 (Unspecified)
system.caches.delayVCHist.vnet_1::max_bucket            9                       # delay histogram for vnet_1 (Unspecified)
system.caches.delayVCHist.vnet_1::samples     19663400                       # delay histogram for vnet_1 (Unspecified)
system.caches.delayVCHist.vnet_1::mean       0.000377                       # delay histogram for vnet_1 (Unspecified)
system.caches.delayVCHist.vnet_1::stdev      0.048663                       # delay histogram for vnet_1 (Unspecified)
system.caches.delayVCHist.vnet_1         |    19662057     99.99%     99.99% |           0      0.00%     99.99% |         239      0.00%     99.99% |           0      0.00%     99.99% |         191      0.00%    100.00% |           0      0.00%    100.00% |         567      0.00%    100.00% |           0      0.00%    100.00% |         346      0.00%    100.00% |           0      0.00%    100.00% # delay histogram for vnet_1 (Unspecified)
system.caches.delayVCHist.vnet_1::total      19663400                       # delay histogram for vnet_1 (Unspecified)
system.caches.delayVCHist.vnet_2::bucket_size            1                       # delay histogram for vnet_2 (Unspecified)
system.caches.delayVCHist.vnet_2::max_bucket            9                       # delay histogram for vnet_2 (Unspecified)
system.caches.delayVCHist.vnet_2::samples        61577                       # delay histogram for vnet_2 (Unspecified)
system.caches.delayVCHist.vnet_2::mean       0.000065                       # delay histogram for vnet_2 (Unspecified)
system.caches.delayVCHist.vnet_2::stdev      0.011398                       # delay histogram for vnet_2 (Unspecified)
system.caches.delayVCHist.vnet_2         |       61575    100.00%    100.00% |           0      0.00%    100.00% |           2      0.00%    100.00% |           0      0.00%    100.00% |           0      0.00%    100.00% |           0      0.00%    100.00% |           0      0.00%    100.00% |           0      0.00%    100.00% |           0      0.00%    100.00% |           0      0.00%    100.00% # delay histogram for vnet_2 (Unspecified)
system.caches.delayVCHist.vnet_2::total         61577                       # delay histogram for vnet_2 (Unspecified)
system.caches.L1Cache_Controller.Load    |   766867274     50.00%     50.00% |   766940101     50.00%    100.00% (Unspecified)
system.caches.L1Cache_Controller.Load::total   1533807375                       (Unspecified)
system.caches.L1Cache_Controller.Ifetch  |18446744071927422976     50.00%     50.00% |18446744071928887296     50.00%    100.00% (Unspecified)
system.caches.L1Cache_Controller.Ifetch::total 36893488143856312320                       (Unspecified)
system.caches.L1Cache_Controller.Store   |    86804542     50.08%     50.08% |    86539206     49.92%    100.00% (Unspecified)
system.caches.L1Cache_Controller.Store::total    173343748                       (Unspecified)
system.caches.L1Cache_Controller.Inv     |       17663     39.02%     39.02% |       27605     60.98%    100.00% (Unspecified)
system.caches.L1Cache_Controller.Inv::total        45268                       (Unspecified)
system.caches.L1Cache_Controller.L1_Replacement |     2534749     50.25%     50.25% |     2509332     49.75%    100.00% (Unspecified)
system.caches.L1Cache_Controller.L1_Replacement::total      5044081                       (Unspecified)
system.caches.L1Cache_Controller.Fwd_GETX |         296     23.11%     23.11% |         985     76.89%    100.00% (Unspecified)
system.caches.L1Cache_Controller.Fwd_GETX::total         1281                       (Unspecified)
system.caches.L1Cache_Controller.Fwd_GETS |       13441     89.44%     89.44% |        1587     10.56%    100.00% (Unspecified)
system.caches.L1Cache_Controller.Fwd_GETS::total        15028                       (Unspecified)
system.caches.L1Cache_Controller.Data    |          61    100.00%    100.00% |           0      0.00%    100.00% (Unspecified)
system.caches.L1Cache_Controller.Data::total           61                       (Unspecified)
system.caches.L1Cache_Controller.Data_Exclusive |       39090     50.17%     50.17% |       38821     49.83%    100.00% (Unspecified)
system.caches.L1Cache_Controller.Data_Exclusive::total        77911                       (Unspecified)
system.caches.L1Cache_Controller.DataS_fromL1 |        1587     10.56%     10.56% |       13441     89.44%    100.00% (Unspecified)
system.caches.L1Cache_Controller.DataS_fromL1::total        15028                       (Unspecified)
system.caches.L1Cache_Controller.Data_all_Acks |     2516001     50.25%     50.25% |     2490569     49.75%    100.00% (Unspecified)
system.caches.L1Cache_Controller.Data_all_Acks::total      5006570                       (Unspecified)
system.caches.L1Cache_Controller.Ack     |       13270     98.33%     98.33% |         225      1.67%    100.00% (Unspecified)
system.caches.L1Cache_Controller.Ack::total        13495                       (Unspecified)
system.caches.L1Cache_Controller.Ack_all |       13331     98.34%     98.34% |         225      1.66%    100.00% (Unspecified)
system.caches.L1Cache_Controller.Ack_all::total        13556                       (Unspecified)
system.caches.L1Cache_Controller.WB_Ack  |     2448988     49.78%     49.78% |     2470885     50.22%    100.00% (Unspecified)
system.caches.L1Cache_Controller.WB_Ack::total      4919873                       (Unspecified)
system.caches.L1Cache_Controller.NP.Load |       41363     50.59%     50.59% |       40398     49.41%    100.00% (Unspecified)
system.caches.L1Cache_Controller.NP.Load::total        81761                       (Unspecified)
system.caches.L1Cache_Controller.NP.Ifetch |       81914     70.89%     70.89% |       33644     29.11%    100.00% (Unspecified)
system.caches.L1Cache_Controller.NP.Ifetch::total       115558                       (Unspecified)
system.caches.L1Cache_Controller.NP.Store |     2420176     49.76%     49.76% |     2443987     50.24%    100.00% (Unspecified)
system.caches.L1Cache_Controller.NP.Store::total      4864163                       (Unspecified)
system.caches.L1Cache_Controller.NP.Inv  |        2831     67.05%     67.05% |        1391     32.95%    100.00% (Unspecified)
system.caches.L1Cache_Controller.NP.Inv::total         4222                       (Unspecified)
system.caches.L1Cache_Controller.I.Load  |        3517     17.92%     17.92% |       16112     82.08%    100.00% (Unspecified)
system.caches.L1Cache_Controller.I.Load::total        19629                       (Unspecified)
system.caches.L1Cache_Controller.I.Ifetch |        8298     52.42%     52.42% |        7532     47.58%    100.00% (Unspecified)
system.caches.L1Cache_Controller.I.Ifetch::total        15830                       (Unspecified)
system.caches.L1Cache_Controller.I.Store |        1472     55.97%     55.97% |        1158     44.03%    100.00% (Unspecified)
system.caches.L1Cache_Controller.I.Store::total         2630                       (Unspecified)
system.caches.L1Cache_Controller.I.L1_Replacement |        1127     40.31%     40.31% |        1669     59.69%    100.00% (Unspecified)
system.caches.L1Cache_Controller.I.L1_Replacement::total         2796                       (Unspecified)
system.caches.L1Cache_Controller.S.Load  |   666794895     49.98%     49.98% |   667301936     50.02%    100.00% (Unspecified)
system.caches.L1Cache_Controller.S.Load::total   1334096831                       (Unspecified)
system.caches.L1Cache_Controller.S.Ifetch |18446744071927332864     50.00%     50.00% |18446744071928846336     50.00%    100.00% (Unspecified)
system.caches.L1Cache_Controller.S.Ifetch::total 36893488143856181248                       (Unspecified)
system.caches.L1Cache_Controller.S.Store |       13270     98.33%     98.33% |         225      1.67%    100.00% (Unspecified)
system.caches.L1Cache_Controller.S.Store::total        13495                       (Unspecified)
system.caches.L1Cache_Controller.S.Inv   |       11175     32.55%     32.55% |       23152     67.45%    100.00% (Unspecified)
system.caches.L1Cache_Controller.S.Inv::total        34327                       (Unspecified)
system.caches.L1Cache_Controller.S.L1_Replacement |       84634     69.71%     69.71% |       36778     30.29%    100.00% (Unspecified)
system.caches.L1Cache_Controller.S.L1_Replacement::total       121412                       (Unspecified)
system.caches.L1Cache_Controller.E.Load  |      724444     51.82%     51.82% |      673463     48.18%    100.00% (Unspecified)
system.caches.L1Cache_Controller.E.Load::total      1397907                       (Unspecified)
system.caches.L1Cache_Controller.E.Store |       20882     50.32%     50.32% |       20620     49.68%    100.00% (Unspecified)
system.caches.L1Cache_Controller.E.Store::total        41502                       (Unspecified)
system.caches.L1Cache_Controller.E.Inv   |        1114     51.08%     51.08% |        1067     48.92%    100.00% (Unspecified)
system.caches.L1Cache_Controller.E.Inv::total         2181                       (Unspecified)
system.caches.L1Cache_Controller.E.L1_Replacement |       16716     51.22%     51.22% |       15918     48.78%    100.00% (Unspecified)
system.caches.L1Cache_Controller.E.L1_Replacement::total        32634                       (Unspecified)
system.caches.L1Cache_Controller.E.Fwd_GETX |           0      0.00%      0.00% |          28    100.00%    100.00% (Unspecified)
system.caches.L1Cache_Controller.E.Fwd_GETX::total           28                       (Unspecified)
system.caches.L1Cache_Controller.E.Fwd_GETS |         337     22.68%     22.68% |        1149     77.32%    100.00% (Unspecified)
system.caches.L1Cache_Controller.E.Fwd_GETS::total         1486                       (Unspecified)
system.caches.L1Cache_Controller.M.Load  |    99303055     50.10%     50.10% |    98908192     49.90%    100.00% (Unspecified)
system.caches.L1Cache_Controller.M.Load::total    198211247                       (Unspecified)
system.caches.L1Cache_Controller.M.Store |    84348742     50.08%     50.08% |    84073216     49.92%    100.00% (Unspecified)
system.caches.L1Cache_Controller.M.Store::total    168421958                       (Unspecified)
system.caches.L1Cache_Controller.M.Inv   |        2543     56.04%     56.04% |        1995     43.96%    100.00% (Unspecified)
system.caches.L1Cache_Controller.M.Inv::total         4538                       (Unspecified)
system.caches.L1Cache_Controller.M.L1_Replacement |     2432272     49.77%     49.77% |     2454967     50.23%    100.00% (Unspecified)
system.caches.L1Cache_Controller.M.L1_Replacement::total      4887239                       (Unspecified)
system.caches.L1Cache_Controller.M.Fwd_GETX |         296     23.62%     23.62% |         957     76.38%    100.00% (Unspecified)
system.caches.L1Cache_Controller.M.Fwd_GETX::total         1253                       (Unspecified)
system.caches.L1Cache_Controller.M.Fwd_GETS |       13104     96.77%     96.77% |         438      3.23%    100.00% (Unspecified)
system.caches.L1Cache_Controller.M.Fwd_GETS::total        13542                       (Unspecified)
system.caches.L1Cache_Controller.IS.Data_Exclusive |       39090     50.17%     50.17% |       38821     49.83%    100.00% (Unspecified)
system.caches.L1Cache_Controller.IS.Data_Exclusive::total        77911                       (Unspecified)
system.caches.L1Cache_Controller.IS.DataS_fromL1 |        1587     10.56%     10.56% |       13441     89.44%    100.00% (Unspecified)
system.caches.L1Cache_Controller.IS.DataS_fromL1::total        15028                       (Unspecified)
system.caches.L1Cache_Controller.IS.Data_all_Acks |       94415     67.52%     67.52% |       45424     32.48%    100.00% (Unspecified)
system.caches.L1Cache_Controller.IS.Data_all_Acks::total       139839                       (Unspecified)
system.caches.L1Cache_Controller.IM.Data |          61    100.00%    100.00% |           0      0.00%    100.00% (Unspecified)
system.caches.L1Cache_Controller.IM.Data::total           61                       (Unspecified)
system.caches.L1Cache_Controller.IM.Data_all_Acks |     2421586     49.76%     49.76% |     2445145     50.24%    100.00% (Unspecified)
system.caches.L1Cache_Controller.IM.Data_all_Acks::total      4866731                       (Unspecified)
system.caches.L1Cache_Controller.SM.Ack  |       13270     98.33%     98.33% |         225      1.67%    100.00% (Unspecified)
system.caches.L1Cache_Controller.SM.Ack::total        13495                       (Unspecified)
system.caches.L1Cache_Controller.SM.Ack_all |       13331     98.34%     98.34% |         225      1.66%    100.00% (Unspecified)
system.caches.L1Cache_Controller.SM.Ack_all::total        13556                       (Unspecified)
system.caches.L1Cache_Controller.M_I.WB_Ack |     2448988     49.78%     49.78% |     2470885     50.22%    100.00% (Unspecified)
system.caches.L1Cache_Controller.M_I.WB_Ack::total      4919873                       (Unspecified)
system.caches.Directory_Controller.Fetch      4850620      0.00%      0.00% (Unspecified)
system.caches.Directory_Controller.Data       4700521      0.00%      0.00% (Unspecified)
system.caches.Directory_Controller.Memory_Data      4850619      0.00%      0.00% (Unspecified)
system.caches.Directory_Controller.Memory_Ack      4700520      0.00%      0.00% (Unspecified)
system.caches.Directory_Controller.CleanReplacement        19027      0.00%      0.00% (Unspecified)
system.caches.Directory_Controller.I.Fetch      4850620      0.00%      0.00% (Unspecified)
system.caches.Directory_Controller.M.Data      4700521      0.00%      0.00% (Unspecified)
system.caches.Directory_Controller.M.CleanReplacement        19027      0.00%      0.00% (Unspecified)
system.caches.Directory_Controller.IM.Memory_Data      4850619      0.00%      0.00% (Unspecified)
system.caches.Directory_Controller.MI.Memory_Ack      4700520      0.00%      0.00% (Unspecified)
system.caches.L2Cache_Controller.L1_GET_INSTR |       11272      8.58%      8.58% |       18815     14.32%     22.90% |       17516     13.33%     36.23% |        5307      4.04%     40.26% |       10835      8.25%     48.51% |       19421     14.78%     63.29% |       22113     16.83%     80.12% |       26129     19.88%    100.00% (Unspecified)
system.caches.L2Cache_Controller.L1_GET_INSTR::total       131408                       (Unspecified)
system.caches.L2Cache_Controller.L1_GETS |       15638     14.81%     14.81% |       13221     12.52%     27.33% |       10867     10.29%     37.62% |       10984     10.40%     48.02% |       10864     10.29%     58.30% |       10820     10.25%     68.55% |       21964     20.80%     89.35% |       11251     10.65%    100.00% (Unspecified)
system.caches.L2Cache_Controller.L1_GETS::total       105609                       (Unspecified)
system.caches.L2Cache_Controller.L1_GETX |      608803     12.51%     12.51% |      608345     12.50%     25.01% |      608214     12.50%     37.51% |      608066     12.49%     50.00% |      608210     12.50%     62.50% |      608810     12.51%     75.01% |      608270     12.50%     87.51% |      608082     12.49%    100.00% (Unspecified)
system.caches.L2Cache_Controller.L1_GETX::total      4866800                       (Unspecified)
system.caches.L2Cache_Controller.L1_UPGRADE |        3739     22.05%     22.05% |        2006     11.83%     33.88% |          52      0.31%     34.19% |          17      0.10%     34.29% |          90      0.53%     34.82% |         100      0.59%     35.41% |       10911     64.35%     99.76% |          41      0.24%    100.00% (Unspecified)
system.caches.L2Cache_Controller.L1_UPGRADE::total        16956                       (Unspecified)
system.caches.L2Cache_Controller.L1_PUTX |      615470     12.51%     12.51% |      615149     12.50%     25.01% |      615012     12.50%     37.51% |      614710     12.49%     50.01% |      614730     12.49%     62.50% |      615044     12.50%     75.00% |      614850     12.50%     87.50% |      614908     12.50%    100.00% (Unspecified)
system.caches.L2Cache_Controller.L1_PUTX::total      4919873                       (Unspecified)
system.caches.L2Cache_Controller.L2_Replacement |      587140     12.50%     12.50% |      587020     12.50%     25.00% |      587112     12.50%     37.50% |      587019     12.50%     50.00% |      587081     12.50%     62.50% |      587148     12.50%     75.00% |      587134     12.50%     87.50% |      587110     12.50%    100.00% (Unspecified)
system.caches.L2Cache_Controller.L2_Replacement::total      4696764                       (Unspecified)
system.caches.L2Cache_Controller.L2_Replacement_clean |        3030     13.30%     13.30% |        3179     13.95%     27.25% |        2680     11.76%     39.01% |        2785     12.22%     51.24% |        2714     11.91%     63.15% |        2894     12.70%     75.85% |        2665     11.70%     87.55% |        2837     12.45%    100.00% (Unspecified)
system.caches.L2Cache_Controller.L2_Replacement_clean::total        22784                       (Unspecified)
system.caches.L2Cache_Controller.Mem_Data |      606554     12.50%     12.50% |      606582     12.51%     25.01% |      606176     12.50%     37.51% |      606188     12.50%     50.00% |      606179     12.50%     62.50% |      606426     12.50%     75.00% |      606183     12.50%     87.50% |      606331     12.50%    100.00% (Unspecified)
system.caches.L2Cache_Controller.Mem_Data::total      4850619                       (Unspecified)
system.caches.L2Cache_Controller.Mem_Ack |      590170     12.50%     12.50% |      590198     12.51%     25.01% |      589792     12.50%     37.51% |      589804     12.50%     50.00% |      589795     12.50%     62.50% |      590042     12.50%     75.00% |      589799     12.50%     87.50% |      589947     12.50%    100.00% (Unspecified)
system.caches.L2Cache_Controller.Mem_Ack::total      4719547                       (Unspecified)
system.caches.L2Cache_Controller.WB_Data |        4400     24.34%     24.34% |        2483     13.73%     38.07% |         368      2.04%     40.11% |         568      3.14%     43.25% |         594      3.29%     46.53% |         953      5.27%     51.80% |        8036     44.45%     96.25% |         678      3.75%    100.00% (Unspecified)
system.caches.L2Cache_Controller.WB_Data::total        18080                       (Unspecified)
system.caches.L2Cache_Controller.WB_Data_clean |         315     21.20%     21.20% |         213     14.33%     35.53% |         192     12.92%     48.45% |         179     12.05%     60.50% |         188     12.65%     73.15% |         107      7.20%     80.35% |         105      7.07%     87.42% |         187     12.58%    100.00% (Unspecified)
system.caches.L2Cache_Controller.WB_Data_clean::total         1486                       (Unspecified)
system.caches.L2Cache_Controller.Ack     |        1483     14.13%     14.13% |        1388     13.23%     27.36% |        1308     12.46%     39.82% |        1207     11.50%     51.32% |        1362     12.98%     64.30% |        1206     11.49%     75.80% |        1268     12.08%     87.88% |        1272     12.12%    100.00% (Unspecified)
system.caches.L2Cache_Controller.Ack::total        10494                       (Unspecified)
system.caches.L2Cache_Controller.Ack_all |        2245     13.46%     13.46% |        2419     14.50%     27.96% |        2103     12.61%     40.57% |        1988     11.92%     52.49% |        2076     12.45%     64.93% |        1893     11.35%     76.28% |        1939     11.62%     87.91% |        2017     12.09%    100.00% (Unspecified)
system.caches.L2Cache_Controller.Ack_all::total        16680                       (Unspecified)
system.caches.L2Cache_Controller.Unblock |        4104     27.31%     27.31% |        2203     14.66%     41.97% |         246      1.64%     43.61% |         193      1.28%     44.89% |         278      1.85%     46.74% |         209      1.39%     48.13% |        7568     50.36%     98.49% |         227      1.51%    100.00% (Unspecified)
system.caches.L2Cache_Controller.Unblock::total        15028                       (Unspecified)
system.caches.L2Cache_Controller.Exclusive_Unblock |      622542     12.56%     12.56% |      620446     12.51%     25.07% |      617898     12.46%     37.53% |      617730     12.46%     49.99% |      617842     12.46%     62.45% |      618576     12.48%     74.93% |      625262     12.61%     87.54% |      617902     12.46%    100.00% (Unspecified)
system.caches.L2Cache_Controller.Exclusive_Unblock::total      4958198                       (Unspecified)
system.caches.L2Cache_Controller.NP.L1_GET_INSTR |        1650     12.80%     12.80% |        1736     13.47%     26.26% |        1604     12.44%     38.71% |        1544     11.98%     50.68% |        1611     12.50%     63.18% |        1548     12.01%     75.19% |        1611     12.50%     87.68% |        1588     12.32%    100.00% (Unspecified)
system.caches.L2Cache_Controller.NP.L1_GET_INSTR::total        12892                       (Unspecified)
system.caches.L2Cache_Controller.NP.L1_GETS |        5726     12.55%     12.55% |        5895     12.92%     25.48% |        5721     12.54%     38.02% |        5751     12.61%     50.63% |        5629     12.34%     62.97% |        5621     12.32%     75.30% |        5526     12.12%     87.41% |        5741     12.59%    100.00% (Unspecified)
system.caches.L2Cache_Controller.NP.L1_GETS::total        45610                       (Unspecified)
system.caches.L2Cache_Controller.NP.L1_GETX |      599178     12.50%     12.50% |      598952     12.50%     25.00% |      598851     12.50%     37.50% |      598893     12.50%     50.00% |      598939     12.50%     62.49% |      599257     12.51%     75.00% |      599046     12.50%     87.50% |      599002     12.50%    100.00% (Unspecified)
system.caches.L2Cache_Controller.NP.L1_GETX::total      4792118                       (Unspecified)
system.caches.L2Cache_Controller.SS.L1_GET_INSTR |        9360      8.03%      8.03% |       16804     14.42%     22.45% |       15679     13.45%     35.90% |        3540      3.04%     38.94% |        8961      7.69%     46.62% |       17605     15.10%     61.73% |       20270     17.39%     79.12% |       24341     20.88%    100.00% (Unspecified)
system.caches.L2Cache_Controller.SS.L1_GET_INSTR::total       116560                       (Unspecified)
system.caches.L2Cache_Controller.SS.L1_GETS |        1371     18.55%     18.55% |         800     10.82%     29.37% |         822     11.12%     40.50% |         978     13.23%     53.73% |         894     12.10%     65.82% |         828     11.20%     77.03% |         621      8.40%     85.43% |        1077     14.57%    100.00% (Unspecified)
system.caches.L2Cache_Controller.SS.L1_GETS::total         7391                       (Unspecified)
system.caches.L2Cache_Controller.SS.L1_GETX |          50     81.97%     81.97% |           0      0.00%     81.97% |           0      0.00%     81.97% |           0      0.00%     81.97% |           0      0.00%     81.97% |           0      0.00%     81.97% |          11     18.03%    100.00% |           0      0.00%    100.00% (Unspecified)
system.caches.L2Cache_Controller.SS.L1_GETX::total           61                       (Unspecified)
system.caches.L2Cache_Controller.SS.L1_UPGRADE |        3739     27.71%     27.71% |        2006     14.86%     42.57% |          52      0.39%     42.96% |          17      0.13%     43.08% |          90      0.67%     43.75% |         100      0.74%     44.49% |        7450     55.21%     99.70% |          41      0.30%    100.00% (Unspecified)
system.caches.L2Cache_Controller.SS.L1_UPGRADE::total        13495                       (Unspecified)
system.caches.L2Cache_Controller.SS.L2_Replacement |           4     14.81%     14.81% |           4     14.81%     29.63% |           5     18.52%     48.15% |           5     18.52%     66.67% |           2      7.41%     74.07% |           2      7.41%     81.48% |           4     14.81%     96.30% |           1      3.70%    100.00% (Unspecified)
system.caches.L2Cache_Controller.SS.L2_Replacement::total           27                       (Unspecified)
system.caches.L2Cache_Controller.SS.L2_Replacement_clean |        1985     13.72%     13.72% |        1934     13.36%     27.08% |        1824     12.60%     39.68% |        1753     12.11%     51.80% |        1821     12.58%     64.38% |        1667     11.52%     75.90% |        1693     11.70%     87.60% |        1795     12.40%    100.00% (Unspecified)
system.caches.L2Cache_Controller.SS.L2_Replacement_clean::total        14472                       (Unspecified)
system.caches.L2Cache_Controller.M.L1_GETS |        4355     13.26%     13.26% |        4261     12.98%     26.24% |        3992     12.16%     38.40% |        3975     12.11%     50.51% |        3985     12.14%     62.65% |        4101     12.49%     75.14% |        4043     12.31%     87.45% |        4119     12.55%    100.00% (Unspecified)
system.caches.L2Cache_Controller.M.L1_GETS::total        32831                       (Unspecified)
system.caches.L2Cache_Controller.M.L1_GETX |        9364     12.77%     12.77% |        9161     12.49%     25.26% |        9229     12.59%     37.85% |        9057     12.35%     50.20% |        9107     12.42%     62.62% |        9220     12.57%     75.19% |        9137     12.46%     87.65% |        9058     12.35%    100.00% (Unspecified)
system.caches.L2Cache_Controller.M.L1_GETX::total        73333                       (Unspecified)
system.caches.L2Cache_Controller.M.L2_Replacement |      587007     12.50%     12.50% |      586946     12.50%     25.00% |      587061     12.50%     37.50% |      586934     12.50%     50.00% |      586965     12.50%     62.50% |      587023     12.50%     75.00% |      587018     12.50%     87.50% |      586995     12.50%    100.00% (Unspecified)
system.caches.L2Cache_Controller.M.L2_Replacement::total      4695949                       (Unspecified)
system.caches.L2Cache_Controller.M.L2_Replacement_clean |         307     12.89%     12.89% |         341     14.32%     27.22% |         314     13.19%     40.40% |         328     13.78%     54.18% |         250     10.50%     64.68% |         275     11.55%     76.23% |         269     11.30%     87.53% |         297     12.47%    100.00% (Unspecified)
system.caches.L2Cache_Controller.M.L2_Replacement_clean::total         2381                       (Unspecified)
system.caches.L2Cache_Controller.MT.L1_GETS |        4104     27.31%     27.31% |        2203     14.66%     41.97% |         246      1.64%     43.61% |         193      1.28%     44.89% |         278      1.85%     46.74% |         209      1.39%     48.13% |        7568     50.36%     98.49% |         227      1.51%    100.00% (Unspecified)
system.caches.L2Cache_Controller.MT.L1_GETS::total        15028                       (Unspecified)
system.caches.L2Cache_Controller.MT.L1_GETX |         211     16.47%     16.47% |         229     17.88%     34.35% |         134     10.46%     44.81% |         115      8.98%     53.79% |         164     12.80%     66.59% |         333     26.00%     92.58% |          73      5.70%     98.28% |          22      1.72%    100.00% (Unspecified)
system.caches.L2Cache_Controller.MT.L1_GETX::total         1281                       (Unspecified)
system.caches.L2Cache_Controller.MT.L1_PUTX |      615470     12.51%     12.51% |      615149     12.50%     25.01% |      615012     12.50%     37.51% |      614710     12.49%     50.01% |      614730     12.49%     62.50% |      615044     12.50%     75.00% |      614850     12.50%     87.50% |      614908     12.50%    100.00% (Unspecified)
system.caches.L2Cache_Controller.MT.L1_PUTX::total      4919873                       (Unspecified)
system.caches.L2Cache_Controller.MT.L2_Replacement |         129     16.37%     16.37% |          70      8.88%     25.25% |          46      5.84%     31.09% |          80     10.15%     41.24% |         114     14.47%     55.71% |         123     15.61%     71.32% |         112     14.21%     85.53% |         114     14.47%    100.00% (Unspecified)
system.caches.L2Cache_Controller.MT.L2_Replacement::total          788                       (Unspecified)
system.caches.L2Cache_Controller.MT.L2_Replacement_clean |         738     12.44%     12.44% |         904     15.24%     27.69% |         542      9.14%     36.82% |         704     11.87%     48.69% |         643     10.84%     59.53% |         952     16.05%     75.59% |         703     11.85%     87.44% |         745     12.56%    100.00% (Unspecified)
system.caches.L2Cache_Controller.MT.L2_Replacement_clean::total         5931                       (Unspecified)
system.caches.L2Cache_Controller.M_I.L1_GET_INSTR |           2     10.00%     10.00% |           9     45.00%     55.00% |           0      0.00%     55.00% |           0      0.00%     55.00% |           1      5.00%     60.00% |           0      0.00%     60.00% |           4     20.00%     80.00% |           4     20.00%    100.00% (Unspecified)
system.caches.L2Cache_Controller.M_I.L1_GET_INSTR::total           20                       (Unspecified)
system.caches.L2Cache_Controller.M_I.L1_GETS |           0      0.00%      0.00% |           4     11.11%     11.11% |           5     13.89%     25.00% |           8     22.22%     47.22% |           6     16.67%     63.89% |           4     11.11%     75.00% |           6     16.67%     91.67% |           3      8.33%    100.00% (Unspecified)
system.caches.L2Cache_Controller.M_I.L1_GETS::total           36                       (Unspecified)
system.caches.L2Cache_Controller.M_I.L1_GETX |           0      0.00%      0.00% |           1     25.00%     25.00% |           0      0.00%     25.00% |           1     25.00%     50.00% |           0      0.00%     50.00% |           0      0.00%     50.00% |           2     50.00%    100.00% |           0      0.00%    100.00% (Unspecified)
system.caches.L2Cache_Controller.M_I.L1_GETX::total            4                       (Unspecified)
system.caches.L2Cache_Controller.M_I.Mem_Ack |      590170     12.50%     12.50% |      590198     12.51%     25.01% |      589792     12.50%     37.51% |      589804     12.50%     50.00% |      589795     12.50%     62.50% |      590042     12.50%     75.00% |      589799     12.50%     87.50% |      589947     12.50%    100.00% (Unspecified)
system.caches.L2Cache_Controller.M_I.Mem_Ack::total      4719547                       (Unspecified)
system.caches.L2Cache_Controller.MT_I.WB_Data |         128     16.39%     16.39% |          70      8.96%     25.35% |          45      5.76%     31.11% |          80     10.24%     41.36% |         114     14.60%     55.95% |         123     15.75%     71.70% |         109     13.96%     85.66% |         112     14.34%    100.00% (Unspecified)
system.caches.L2Cache_Controller.MT_I.WB_Data::total          781                       (Unspecified)
system.caches.L2Cache_Controller.MT_I.Ack_all |           1     14.29%     14.29% |           0      0.00%     14.29% |           1     14.29%     28.57% |           0      0.00%     28.57% |           0      0.00%     28.57% |           0      0.00%     28.57% |           3     42.86%     71.43% |           2     28.57%    100.00% (Unspecified)
system.caches.L2Cache_Controller.MT_I.Ack_all::total            7                       (Unspecified)
system.caches.L2Cache_Controller.MCT_I.WB_Data |         483     12.86%     12.86% |         423     11.26%     24.11% |         269      7.16%     31.27% |         474     12.62%     43.89% |         390     10.38%     54.27% |         728     19.38%     73.65% |         464     12.35%     86.00% |         526     14.00%    100.00% (Unspecified)
system.caches.L2Cache_Controller.MCT_I.WB_Data::total         3757                       (Unspecified)
system.caches.L2Cache_Controller.MCT_I.Ack_all |         255     11.73%     11.73% |         481     22.13%     33.85% |         273     12.56%     46.41% |         230     10.58%     56.99% |         253     11.64%     68.63% |         224     10.30%     78.93% |         239     10.99%     89.93% |         219     10.07%    100.00% (Unspecified)
system.caches.L2Cache_Controller.MCT_I.Ack_all::total         2174                       (Unspecified)
system.caches.L2Cache_Controller.I_I.Ack |        1479     14.13%     14.13% |        1384     13.22%     27.35% |        1303     12.45%     39.80% |        1202     11.48%     51.28% |        1360     12.99%     64.28% |        1204     11.50%     75.78% |        1264     12.08%     87.86% |        1271     12.14%    100.00% (Unspecified)
system.caches.L2Cache_Controller.I_I.Ack::total        10467                       (Unspecified)
system.caches.L2Cache_Controller.I_I.Ack_all |        1985     13.72%     13.72% |        1934     13.36%     27.08% |        1824     12.60%     39.68% |        1753     12.11%     51.80% |        1821     12.58%     64.38% |        1667     11.52%     75.90% |        1693     11.70%     87.60% |        1795     12.40%    100.00% (Unspecified)
system.caches.L2Cache_Controller.I_I.Ack_all::total        14472                       (Unspecified)
system.caches.L2Cache_Controller.S_I.Ack |           4     14.81%     14.81% |           4     14.81%     29.63% |           5     18.52%     48.15% |           5     18.52%     66.67% |           2      7.41%     74.07% |           2      7.41%     81.48% |           4     14.81%     96.30% |           1      3.70%    100.00% (Unspecified)
system.caches.L2Cache_Controller.S_I.Ack::total           27                       (Unspecified)
system.caches.L2Cache_Controller.S_I.Ack_all |           4     14.81%     14.81% |           4     14.81%     29.63% |           5     18.52%     48.15% |           5     18.52%     66.67% |           2      7.41%     74.07% |           2      7.41%     81.48% |           4     14.81%     96.30% |           1      3.70%    100.00% (Unspecified)
system.caches.L2Cache_Controller.S_I.Ack_all::total           27                       (Unspecified)
system.caches.L2Cache_Controller.ISS.L1_GETS |          81     15.28%     15.28% |          57     10.75%     26.04% |          81     15.28%     41.32% |          78     14.72%     56.04% |          72     13.58%     69.62% |          56     10.57%     80.19% |          24      4.53%     84.72% |          81     15.28%    100.00% (Unspecified)
system.caches.L2Cache_Controller.ISS.L1_GETS::total          530                       (Unspecified)
system.caches.L2Cache_Controller.ISS.L1_GETX |           0      0.00%      0.00% |           0      0.00%      0.00% |           0      0.00%      0.00% |           0      0.00%      0.00% |           0      0.00%      0.00% |           0      0.00%      0.00% |           1    100.00%    100.00% |           0      0.00%    100.00% (Unspecified)
system.caches.L2Cache_Controller.ISS.L1_GETX::total            1                       (Unspecified)
system.caches.L2Cache_Controller.ISS.Mem_Data |        5645     12.52%     12.52% |        5838     12.95%     25.47% |        5640     12.51%     37.98% |        5673     12.58%     50.57% |        5557     12.33%     62.89% |        5565     12.34%     75.24% |        5502     12.20%     87.44% |        5660     12.56%    100.00% (Unspecified)
system.caches.L2Cache_Controller.ISS.Mem_Data::total        45080                       (Unspecified)
system.caches.L2Cache_Controller.IS.L1_GET_INSTR |         260     13.43%     13.43% |         266     13.74%     27.17% |         233     12.04%     39.20% |         223     11.52%     50.72% |         262     13.53%     64.26% |         268     13.84%     78.10% |         228     11.78%     89.88% |         196     10.12%    100.00% (Unspecified)
system.caches.L2Cache_Controller.IS.L1_GET_INSTR::total         1936                       (Unspecified)
system.caches.L2Cache_Controller.IS.Mem_Data |        1731     12.90%     12.90% |        1793     13.36%     26.26% |        1685     12.55%     38.81% |        1622     12.08%     50.89% |        1683     12.54%     63.43% |        1604     11.95%     75.38% |        1635     12.18%     87.57% |        1669     12.43%    100.00% (Unspecified)
system.caches.L2Cache_Controller.IS.Mem_Data::total        13422                       (Unspecified)
system.caches.L2Cache_Controller.IM.L1_GETX |           0      0.00%      0.00% |           2    100.00%    100.00% |           0      0.00%    100.00% |           0      0.00%    100.00% |           0      0.00%    100.00% |           0      0.00%    100.00% |           0      0.00%    100.00% |           0      0.00%    100.00% (Unspecified)
system.caches.L2Cache_Controller.IM.L1_GETX::total            2                       (Unspecified)
system.caches.L2Cache_Controller.IM.Mem_Data |      599178     12.50%     12.50% |      598951     12.50%     25.00% |      598851     12.50%     37.50% |      598893     12.50%     50.00% |      598939     12.50%     62.49% |      599257     12.51%     75.00% |      599046     12.50%     87.50% |      599002     12.50%    100.00% (Unspecified)
system.caches.L2Cache_Controller.IM.Mem_Data::total      4792117                       (Unspecified)
system.caches.L2Cache_Controller.SS_MB.L1_GETS |           0      0.00%      0.00% |           1      0.02%      0.02% |           0      0.00%      0.02% |           0      0.00%      0.02% |           0      0.00%      0.02% |           0      0.00%      0.02% |        4176     99.98%    100.00% |           0      0.00%    100.00% (Unspecified)
system.caches.L2Cache_Controller.SS_MB.L1_GETS::total         4177                       (Unspecified)
system.caches.L2Cache_Controller.SS_MB.Exclusive_Unblock |        3789     27.95%     27.95% |        2006     14.80%     42.75% |          52      0.38%     43.13% |          17      0.13%     43.26% |          90      0.66%     43.92% |         100      0.74%     44.66% |        7461     55.04%     99.70% |          41      0.30%    100.00% (Unspecified)
system.caches.L2Cache_Controller.SS_MB.Exclusive_Unblock::total        13556                       (Unspecified)
system.caches.L2Cache_Controller.MT_MB.L1_GETS |           1     16.67%     16.67% |           0      0.00%     16.67% |           0      0.00%     16.67% |           1     16.67%     33.33% |           0      0.00%     33.33% |           1     16.67%     50.00% |           0      0.00%     50.00% |           3     50.00%    100.00% (Unspecified)
system.caches.L2Cache_Controller.MT_MB.L1_GETS::total            6                       (Unspecified)
system.caches.L2Cache_Controller.MT_MB.Exclusive_Unblock |      618753     12.51%     12.51% |      618440     12.51%     25.02% |      617846     12.50%     37.52% |      617713     12.49%     50.01% |      617752     12.49%     62.50% |      618476     12.51%     75.01% |      617801     12.49%     87.50% |      617861     12.50%    100.00% (Unspecified)
system.caches.L2Cache_Controller.MT_MB.Exclusive_Unblock::total      4944642                       (Unspecified)
system.caches.L2Cache_Controller.MT_IIB.WB_Data |        3789     27.98%     27.98% |        1990     14.70%     42.67% |          54      0.40%     43.07% |          14      0.10%     43.18% |          90      0.66%     43.84% |         102      0.75%     44.59% |        7463     55.11%     99.70% |          40      0.30%    100.00% (Unspecified)
system.caches.L2Cache_Controller.MT_IIB.WB_Data::total        13542                       (Unspecified)
system.caches.L2Cache_Controller.MT_IIB.WB_Data_clean |         315     21.20%     21.20% |         213     14.33%     35.53% |         192     12.92%     48.45% |         179     12.05%     60.50% |         188     12.65%     73.15% |         107      7.20%     80.35% |         105      7.07%     87.42% |         187     12.58%    100.00% (Unspecified)
system.caches.L2Cache_Controller.MT_IIB.WB_Data_clean::total         1486                       (Unspecified)
system.caches.L2Cache_Controller.MT_SB.L1_UPGRADE |           0      0.00%      0.00% |           0      0.00%      0.00% |           0      0.00%      0.00% |           0      0.00%      0.00% |           0      0.00%      0.00% |           0      0.00%      0.00% |        3461    100.00%    100.00% |           0      0.00%    100.00% (Unspecified)
system.caches.L2Cache_Controller.MT_SB.L1_UPGRADE::total         3461                       (Unspecified)
system.caches.L2Cache_Controller.MT_SB.Unblock |        4104     27.31%     27.31% |        2203     14.66%     41.97% |         246      1.64%     43.61% |         193      1.28%     44.89% |         278      1.85%     46.74% |         209      1.39%     48.13% |        7568     50.36%     98.49% |         227      1.51%    100.00% (Unspecified)
system.caches.L2Cache_Controller.MT_SB.Unblock::total        15028                       (Unspecified)
system.caches.RequestType.LD.latency_hist_seqr::bucket_size          512                       (Unspecified)
system.caches.RequestType.LD.latency_hist_seqr::max_bucket         5119                       (Unspecified)
system.caches.RequestType.LD.latency_hist_seqr::samples   1533807375                       (Unspecified)
system.caches.RequestType.LD.latency_hist_seqr::mean     1.017564                       (Unspecified)
system.caches.RequestType.LD.latency_hist_seqr::gmean     1.000292                       (Unspecified)
system.caches.RequestType.LD.latency_hist_seqr::stdev     3.391419                       (Unspecified)
system.caches.RequestType.LD.latency_hist_seqr |  1533787131    100.00%    100.00% |       19027      0.00%    100.00% |         307      0.00%    100.00% |         712      0.00%    100.00% |         177      0.00%    100.00% |          21      0.00%    100.00% |           0      0.00%    100.00% |           0      0.00%    100.00% |           0      0.00%    100.00% |           0      0.00%    100.00% (Unspecified)
system.caches.RequestType.LD.latency_hist_seqr::total   1533807375                       (Unspecified)
system.caches.RequestType.LD.hit_latency_hist_seqr::bucket_size            1                       (Unspecified)
system.caches.RequestType.LD.hit_latency_hist_seqr::max_bucket            9                       (Unspecified)
system.caches.RequestType.LD.hit_latency_hist_seqr::samples   1533705985                       (Unspecified)
system.caches.RequestType.LD.hit_latency_hist_seqr::mean            1                       (Unspecified)
system.caches.RequestType.LD.hit_latency_hist_seqr::gmean            1                       (Unspecified)
system.caches.RequestType.LD.hit_latency_hist_seqr |           0      0.00%      0.00% |  1533705985    100.00%    100.00% |           0      0.00%    100.00% |           0      0.00%    100.00% |           0      0.00%    100.00% |           0      0.00%    100.00% |           0      0.00%    100.00% |           0      0.00%    100.00% |           0      0.00%    100.00% |           0      0.00%    100.00% (Unspecified)
system.caches.RequestType.LD.hit_latency_hist_seqr::total   1533705985                       (Unspecified)
system.caches.RequestType.LD.miss_latency_hist_seqr::bucket_size          512                       (Unspecified)
system.caches.RequestType.LD.miss_latency_hist_seqr::max_bucket         5119                       (Unspecified)
system.caches.RequestType.LD.miss_latency_hist_seqr::samples       101390                       (Unspecified)
system.caches.RequestType.LD.miss_latency_hist_seqr::mean   266.703797                       (Unspecified)
system.caches.RequestType.LD.miss_latency_hist_seqr::gmean    82.523942                       (Unspecified)
system.caches.RequestType.LD.miss_latency_hist_seqr::stdev   321.563215                       (Unspecified)
[...]
system.timingCpu0.exec_context.thread_0.statExecutedInstType::SimdSha1Hash            0      0.00%     74.45% # Class of executed instruction. (Count)
system.timingCpu0.exec_context.thread_0.statExecutedInstType::SimdSha1Hash2            0      0.00%     74.45% # Class of executed instruction. (Count)
system.timingCpu0.exec_context.thread_0.statExecutedInstType::SimdSha256Hash            0      0.00%     74.45% # Class of executed instruction. (Count)
system.timingCpu0.exec_context.thread_0.statExecutedInstType::SimdSha256Hash2            0      0.00%     74.45% # Class of executed instruction. (Count)
system.timingCpu0.exec_context.thread_0.statExecutedInstType::SimdShaSigma2            0      0.00%     74.45% # Class of executed instruction. (Count)
system.timingCpu0.exec_context.thread_0.statExecutedInstType::SimdShaSigma3            0      0.00%     74.45% # Class of executed instruction. (Count)
system.timingCpu0.exec_context.thread_0.statExecutedInstType::SimdPredAlu            0      0.00%     74.45% # Class of executed instruction. (Count)
system.timingCpu0.exec_context.thread_0.statExecutedInstType::MemRead     86058392      2.58%     77.03% # Class of executed instruction. (Count)
system.timingCpu0.exec_context.thread_0.statExecutedInstType::MemWrite     23733066      0.71%     77.74% # Class of executed instruction. (Count)
system.timingCpu0.exec_context.thread_0.statExecutedInstType::FloatMemRead    680743829     20.38%     98.12% # Class of executed instruction. (Count)
system.timingCpu0.exec_context.thread_0.statExecutedInstType::FloatMemWrite     62896814      1.88%    100.00% # Class of executed instruction. (Count)
system.timingCpu0.exec_context.thread_0.statExecutedInstType::IprAccess            0      0.00%    100.00% # Class of executed instruction. (Count)
system.timingCpu0.exec_context.thread_0.statExecutedInstType::InstPrefetch            0      0.00%    100.00% # Class of executed instruction. (Count)
system.timingCpu0.exec_context.thread_0.statExecutedInstType::total   3340471806                       # Class of executed instruction. (Count)
system.timingCpu0.mmu.dtb.rdAccesses        766852035                       # TLB accesses on read requests (Count)
system.timingCpu0.mmu.dtb.wrAccesses         86638533                       # TLB accesses on write requests (Count)
system.timingCpu0.mmu.dtb.rdMisses              49814                       # TLB misses on read requests (Count)
system.timingCpu0.mmu.dtb.wrMisses               9059                       # TLB misses on write requests (Count)
system.timingCpu0.mmu.dtb.walker.power_state.pwrStateResidencyTicks::UNDEFINED 19996274303000                       # Cumulative time (in ticks) in various power states (Tick)
system.timingCpu0.mmu.itb.rdAccesses                0                       # TLB accesses on read requests (Count)
system.timingCpu0.mmu.itb.wrAccesses       2512842779                       # TLB accesses on write requests (Count)
system.timingCpu0.mmu.itb.rdMisses                  0                       # TLB misses on read requests (Count)
system.timingCpu0.mmu.itb.wrMisses               4234                       # TLB misses on write requests (Count)
system.timingCpu0.mmu.itb.walker.power_state.pwrStateResidencyTicks::UNDEFINED 19996274303000                       # Cumulative time (in ticks) in various power states (Tick)
system.timingCpu0.power_state.pwrStateResidencyTicks::OFF 19996274303000                       # Cumulative time (in ticks) in various power states (Tick)
system.timingCpu0.thread_0.numInsts                 0                       # Number of Instructions committed (Count)
system.timingCpu0.thread_0.numOps                   0                       # Number of Ops committed (Count)
system.timingCpu0.thread_0.numMemRefs               0                       # Number of Memory References (Count)
system.timingCpu1.numCycles                8000000000                       # Number of cpu cycles simulated (Cycle)
system.timingCpu1.numWorkItemsStarted               0                       # Number of work items this cpu started (Count)
system.timingCpu1.numWorkItemsCompleted             0                       # Number of work items this cpu completed (Count)
system.timingCpu1.exec_context.thread_0.numInsts   1591012647                       # Number of instructions committed (Count)
system.timingCpu1.exec_context.thread_0.numOps   3340843443                       # Number of ops (including micro ops) committed (Count)
system.timingCpu1.exec_context.thread_0.numIntAluAccesses   1589105931                       # Number of integer alu accesses (Count)
system.timingCpu1.exec_context.thread_0.numFpAluAccesses   2556189391                       # Number of float alu accesses (Count)
system.timingCpu1.exec_context.thread_0.numVecAluAccesses            0                       # Number of vector alu accesses (Count)
system.timingCpu1.exec_context.thread_0.numCallsReturns     19801932                       # Number of times a function call or return occured (Count)
system.timingCpu1.exec_context.thread_0.numCondCtrlInsts      4450981                       # Number of instructions that are conditional controls (Count)
system.timingCpu1.exec_context.thread_0.numIntInsts   1589105931                       # Number of integer instructions (Count)
system.timingCpu1.exec_context.thread_0.numFpInsts   2556189391                       # Number of float instructions (Count)
system.timingCpu1.exec_context.thread_0.numVecInsts            0                       # Number of vector instructions (Count)
system.timingCpu1.exec_context.thread_0.numIntRegReads   1272217489                       # Number of times the integer registers were read (Count)
system.timingCpu1.exec_context.thread_0.numIntRegWrites    733315972                       # Number of times the integer registers were written (Count)
system.timingCpu1.exec_context.thread_0.numFpRegReads   4815320573                       # Number of times the floating registers were read (Count)
system.timingCpu1.exec_context.thread_0.numFpRegWrites   2493258221                       # Number of times the floating registers were written (Count)
system.timingCpu1.exec_context.thread_0.numVecRegReads            0                       # Number of times the vector registers were read (Count)
system.timingCpu1.exec_context.thread_0.numVecRegWrites            0                       # Number of times the vector registers were written (Count)
system.timingCpu1.exec_context.thread_0.numVecPredRegReads            0                       # Number of times the predicate registers were read (Count)
system.timingCpu1.exec_context.thread_0.numVecPredRegWrites            0                       # Number of times the predicate registers were written (Count)
system.timingCpu1.exec_context.thread_0.numCCRegReads     25861133                       # Number of times the CC registers were read (Count)
system.timingCpu1.exec_context.thread_0.numCCRegWrites    146927885                       # Number of times the CC registers were written (Count)
system.timingCpu1.exec_context.thread_0.numMiscRegReads   1303904299                       # Number of times the Misc registers were read (Count)
system.timingCpu1.exec_context.thread_0.numMiscRegWrites        77987                       # Number of times the Misc registers were written (Count)
system.timingCpu1.exec_context.thread_0.numMemRefs    853279326                       # Number of memory refs (Count)
system.timingCpu1.exec_context.thread_0.numLoadInsts    766876357                       # Number of load instructions (Count)
system.timingCpu1.exec_context.thread_0.numStoreInsts     86402969                       # Number of store instructions (Count)
system.timingCpu1.exec_context.thread_0.numIdleCycles 947384.000000                       # Number of idle cycles (Cycle)
system.timingCpu1.exec_context.thread_0.numBusyCycles   7999052616                       # Number of busy cycles (Cycle)
system.timingCpu1.exec_context.thread_0.notIdleFraction     0.999882                       # Percentage of non-idle cycles (Ratio)
system.timingCpu1.exec_context.thread_0.idleFraction     0.000118                       # Percentage of idle cycles (Ratio)
system.timingCpu1.exec_context.thread_0.numBranches     24447018                       # Number of branches fetched (Count)
system.timingCpu1.exec_context.thread_0.statExecutedInstType::No_OpClass        35346      0.00%      0.00% # Class of executed instruction. (Count)
system.timingCpu1.exec_context.thread_0.statExecutedInstType::IntAlu    819407574     24.53%     24.53% # Class of executed instruction. (Count)
system.timingCpu1.exec_context.thread_0.statExecutedInstType::IntMult      3355555      0.10%     24.63% # Class of executed instruction. (Count)
system.timingCpu1.exec_context.thread_0.statExecutedInstType::IntDiv        91546      0.00%     24.63% # Class of executed instruction. (Count)
system.timingCpu1.exec_context.thread_0.statExecutedInstType::FloatAdd     77114205      2.31%     26.94% # Class of executed instruction. (Count)
system.timingCpu1.exec_context.thread_0.statExecutedInstType::FloatCmp            0      0.00%     26.94% # Class of executed instruction. (Count)
system.timingCpu1.exec_context.thread_0.statExecutedInstType::FloatCvt           48      0.00%     26.94% # Class of executed instruction. (Count)
system.timingCpu1.exec_context.thread_0.statExecutedInstType::FloatMult            0      0.00%     26.94% # Class of executed instruction. (Count)
system.timingCpu1.exec_context.thread_0.statExecutedInstType::FloatMultAcc            0      0.00%     26.94% # Class of executed instruction. (Count)
system.timingCpu1.exec_context.thread_0.statExecutedInstType::FloatDiv            0      0.00%     26.94% # Class of executed instruction. (Count)
system.timingCpu1.exec_context.thread_0.statExecutedInstType::FloatMisc            0      0.00%     26.94% # Class of executed instruction. (Count)
system.timingCpu1.exec_context.thread_0.statExecutedInstType::FloatSqrt            0      0.00%     26.94% # Class of executed instruction. (Count)
system.timingCpu1.exec_context.thread_0.statExecutedInstType::SimdAdd            0      0.00%     26.94% # Class of executed instruction. (Count)
system.timingCpu1.exec_context.thread_0.statExecutedInstType::SimdAddAcc            0      0.00%     26.94% # Class of executed instruction. (Count)
system.timingCpu1.exec_context.thread_0.statExecutedInstType::SimdAlu    122085096      3.65%     30.59% # Class of executed instruction. (Count)
system.timingCpu1.exec_context.thread_0.statExecutedInstType::SimdCmp            0      0.00%     30.59% # Class of executed instruction. (Count)
system.timingCpu1.exec_context.thread_0.statExecutedInstType::SimdCvt            0      0.00%     30.59% # Class of executed instruction. (Count)
system.timingCpu1.exec_context.thread_0.statExecutedInstType::SimdMisc     61042547      1.83%     32.42% # Class of executed instruction. (Count)
system.timingCpu1.exec_context.thread_0.statExecutedInstType::SimdMult            0      0.00%     32.42% # Class of executed instruction. (Count)
system.timingCpu1.exec_context.thread_0.statExecutedInstType::SimdMultAcc            0      0.00%     32.42% # Class of executed instruction. (Count)
system.timingCpu1.exec_context.thread_0.statExecutedInstType::SimdShift            0      0.00%     32.42% # Class of executed instruction. (Count)
system.timingCpu1.exec_context.thread_0.statExecutedInstType::SimdShiftAcc            0      0.00%     32.42% # Class of executed instruction. (Count)
system.timingCpu1.exec_context.thread_0.statExecutedInstType::SimdDiv            0      0.00%     32.42% # Class of executed instruction. (Count)
system.timingCpu1.exec_context.thread_0.statExecutedInstType::SimdSqrt            0      0.00%     32.42% # Class of executed instruction. (Count)
system.timingCpu1.exec_context.thread_0.statExecutedInstType::SimdFloatAdd    654840852     19.60%     52.02% # Class of executed instruction. (Count)
system.timingCpu1.exec_context.thread_0.statExecutedInstType::SimdFloatAlu            0      0.00%     52.02% # Class of executed instruction. (Count)
system.timingCpu1.exec_context.thread_0.statExecutedInstType::SimdFloatCmp            0      0.00%     52.02% # Class of executed instruction. (Count)
system.timingCpu1.exec_context.thread_0.statExecutedInstType::SimdFloatCvt     61042547      1.83%     53.85% # Class of executed instruction. (Count)
system.timingCpu1.exec_context.thread_0.statExecutedInstType::SimdFloatDiv     30521272      0.91%     54.76% # Class of executed instruction. (Count)
system.timingCpu1.exec_context.thread_0.statExecutedInstType::SimdFloatMisc            0      0.00%     54.76% # Class of executed instruction. (Count)
system.timingCpu1.exec_context.thread_0.statExecutedInstType::SimdFloatMult    658027700     19.70%     74.46% # Class of executed instruction. (Count)
system.timingCpu1.exec_context.thread_0.statExecutedInstType::SimdFloatMultAcc            0      0.00%     74.46% # Class of executed instruction. (Count)
system.timingCpu1.exec_context.thread_0.statExecutedInstType::SimdFloatSqrt            0      0.00%     74.46% # Class of executed instruction. (Count)
system.timingCpu1.exec_context.thread_0.statExecutedInstType::SimdReduceAdd            0      0.00%     74.46% # Class of executed instruction. (Count)
system.timingCpu1.exec_context.thread_0.statExecutedInstType::SimdReduceAlu            0      0.00%     74.46% # Class of executed instruction. (Count)
system.timingCpu1.exec_context.thread_0.statExecutedInstType::SimdReduceCmp            0      0.00%     74.46% # Class of executed instruction. (Count)
system.timingCpu1.exec_context.thread_0.statExecutedInstType::SimdFloatReduceAdd            0      0.00%     74.46% # Class of executed instruction. (Count)
system.timingCpu1.exec_context.thread_0.statExecutedInstType::SimdFloatReduceCmp            0      0.00%     74.46% # Class of executed instruction. (Count)
system.timingCpu1.exec_context.thread_0.statExecutedInstType::SimdAes            0      0.00%     74.46% # Class of executed instruction. (Count)
system.timingCpu1.exec_context.thread_0.statExecutedInstType::SimdAesMix            0      0.00%     74.46% # Class of executed instruction. (Count)
system.timingCpu1.exec_context.thread_0.statExecutedInstType::SimdSha1Hash            0      0.00%     74.46% # Class of executed instruction. (Count)
system.timingCpu1.exec_context.thread_0.statExecutedInstType::SimdSha1Hash2            0      0.00%     74.46% # Class of executed instruction. (Count)
system.timingCpu1.exec_context.thread_0.statExecutedInstType::SimdSha256Hash            0      0.00%     74.46% # Class of executed instruction. (Count)
system.timingCpu1.exec_context.thread_0.statExecutedInstType::SimdSha256Hash2            0      0.00%     74.46% # Class of executed instruction. (Count)
system.timingCpu1.exec_context.thread_0.statExecutedInstType::SimdShaSigma2            0      0.00%     74.46% # Class of executed instruction. (Count)
system.timingCpu1.exec_context.thread_0.statExecutedInstType::SimdShaSigma3            0      0.00%     74.46% # Class of executed instruction. (Count)
system.timingCpu1.exec_context.thread_0.statExecutedInstType::SimdPredAlu            0      0.00%     74.46% # Class of executed instruction. (Count)
system.timingCpu1.exec_context.thread_0.statExecutedInstType::MemRead     85753404      2.57%     77.03% # Class of executed instruction. (Count)
system.timingCpu1.exec_context.thread_0.statExecutedInstType::MemWrite     23471847      0.70%     77.73% # Class of executed instruction. (Count)
system.timingCpu1.exec_context.thread_0.statExecutedInstType::FloatMemRead    681122953     20.39%     98.12% # Class of executed instruction. (Count)
system.timingCpu1.exec_context.thread_0.statExecutedInstType::FloatMemWrite     62931122      1.88%    100.00% # Class of executed instruction. (Count)
system.timingCpu1.exec_context.thread_0.statExecutedInstType::IprAccess            0      0.00%    100.00% # Class of executed instruction. (Count)
system.timingCpu1.exec_context.thread_0.statExecutedInstType::InstPrefetch            0      0.00%    100.00% # Class of executed instruction. (Count)
system.timingCpu1.exec_context.thread_0.statExecutedInstType::total   3340843614                       # Class of executed instruction. (Count)
system.timingCpu1.mmu.dtb.rdAccesses        766916260                       # TLB accesses on read requests (Count)
system.timingCpu1.mmu.dtb.wrAccesses         86409916                       # TLB accesses on write requests (Count)
system.timingCpu1.mmu.dtb.rdMisses              41503                       # TLB misses on read requests (Count)
system.timingCpu1.mmu.dtb.wrMisses               7597                       # TLB misses on write requests (Count)
system.timingCpu1.mmu.dtb.walker.power_state.pwrStateResidencyTicks::UNDEFINED 19996274303000                       # Cumulative time (in ticks) in various power states (Tick)
system.timingCpu1.mmu.itb.rdAccesses                0                       # TLB accesses on read requests (Count)
system.timingCpu1.mmu.itb.wrAccesses       2514306602                       # TLB accesses on write requests (Count)
system.timingCpu1.mmu.itb.rdMisses                  0                       # TLB misses on read requests (Count)
system.timingCpu1.mmu.itb.wrMisses               3733                       # TLB misses on write requests (Count)
system.timingCpu1.mmu.itb.walker.power_state.pwrStateResidencyTicks::UNDEFINED 19996274303000                       # Cumulative time (in ticks) in various power states (Tick)
system.timingCpu1.power_state.numTransitions            2                       # Number of power state transitions (Count)
system.timingCpu1.power_state.ticksClkGated::samples            1                       # Distribution of time spent in the clock gated state (Tick)
system.timingCpu1.power_state.ticksClkGated::mean    236846000                       # Distribution of time spent in the clock gated state (Tick)
system.timingCpu1.power_state.ticksClkGated::1000-5e+10            1    100.00%    100.00% # Distribution of time spent in the clock gated state (Tick)
system.timingCpu1.power_state.ticksClkGated::min_value    236846000                       # Distribution of time spent in the clock gated state (Tick)
system.timingCpu1.power_state.ticksClkGated::max_value    236846000                       # Distribution of time spent in the clock gated state (Tick)
system.timingCpu1.power_state.ticksClkGated::total            1                       # Distribution of time spent in the clock gated state (Tick)
system.timingCpu1.power_state.pwrStateResidencyTicks::ON 1760008203250                       # Cumulative time (in ticks) in various power states (Tick)
system.timingCpu1.power_state.pwrStateResidencyTicks::CLK_GATED    236846000                       # Cumulative time (in ticks) in various power states (Tick)
system.timingCpu1.power_state.pwrStateResidencyTicks::OFF 18236029253750                       # Cumulative time (in ticks) in various power states (Tick)
system.timingCpu1.thread_0.numInsts                 0                       # Number of Instructions committed (Count)
system.timingCpu1.thread_0.numOps                   0                       # Number of Ops committed (Count)
system.timingCpu1.thread_0.numMemRefs               0                       # Number of Memory References (Count)
system.workload.inst.arm                            0                       # number of arm instructions executed (Count)
system.workload.inst.quiesce                        0                       # number of quiesce instructions executed (Count)

---------- End Simulation Statistics   ----------
