
---------- Begin Simulation Statistics ----------
simSeconds                                   0.010000                       # Number of seconds simulated (Second)
simTicks                                  10000000000                       # Number of ticks simulated (Tick)
finalTick                                 10000000000                       # Number of ticks from beginning of simulation (restored from checkpoints and never reset) (Tick)
simFreq                                  1000000000000                       # The number of ticks per simulated second ((Tick/Second))
hostSeconds                                     40.37                       # Real time elapsed on the host (Second)
hostTickRate                                247723387                       # The number of ticks simulated per host second (ticks/s) ((Tick/Second))
hostMemory                                    3961452                       # Number of bytes of host memory used (Byte)
system.clk_domain.clock                           250                       # Clock period in ticks (Tick)
system.clk_domain.voltage_domain.voltage            1                       # Voltage in Volts (Volt)
system.far_mem_ctrl.avgPriority_writebacks::samples   1901108.00                       # Average QoS priority value for accepted requests (Count)
system.far_mem_ctrl.priorityMinLatency   0.000000031652                       # per QoS priority minimum request to response latency (Second)
system.far_mem_ctrl.priorityMaxLatency   0.000176002702                       # per QoS priority maximum request to response latency (Second)
system.far_mem_ctrl.numReadWriteTurnArounds            0                       # Number of turnarounds from READ to WRITE (Count)
system.far_mem_ctrl.numWriteReadTurnArounds            0                       # Number of turnarounds from WRITE to READ (Count)
system.far_mem_ctrl.numStayReadState          2016091                       # Number of times bus staying in READ state (Count)
system.far_mem_ctrl.numStayWriteState               0                       # Number of times bus staying in WRITE state (Count)
system.far_mem_ctrl.readReqs                  1324781                       # Number of read requests accepted (Count)
system.far_mem_ctrl.writeReqs                 1324690                       # Number of write requests accepted (Count)
system.far_mem_ctrl.readBursts                1324781                       # Number of controller read bursts, including those serviced by the write queue (Count)
system.far_mem_ctrl.writeBursts               1324690                       # Number of controller write bursts, including those merged in the write queue (Count)
system.far_mem_ctrl.servicedByWrQ                1750                       # Number of controller read bursts serviced by the write queue (Count)
system.far_mem_ctrl.mergedWrBursts             746613                       # Number of controller write bursts merged with an existing one (Count)
system.far_mem_ctrl.avgRdQLen                   26.86                       # Average read queue length when enqueuing ((Count/Tick))
system.far_mem_ctrl.avgWrQLen                  105.82                       # Average write queue length when enqueuing ((Count/Tick))
system.far_mem_ctrl.numRdRetry                 337546                       # Number of times read queue was full causing retry (Count)
system.far_mem_ctrl.numWrRetry                 625697                       # Number of times write queue was full causing retry (Count)
system.far_mem_ctrl.readPktSize::0                  0                       # Read request sizes (log2) (Count)
system.far_mem_ctrl.readPktSize::1                  0                       # Read request sizes (log2) (Count)
system.far_mem_ctrl.readPktSize::2                  0                       # Read request sizes (log2) (Count)
system.far_mem_ctrl.readPktSize::3                  0                       # Read request sizes (log2) (Count)
system.far_mem_ctrl.readPktSize::4                  0                       # Read request sizes (log2) (Count)
system.far_mem_ctrl.readPktSize::5                  0                       # Read request sizes (log2) (Count)
system.far_mem_ctrl.readPktSize::6            1324781                       # Read request sizes (log2) (Count)
system.far_mem_ctrl.writePktSize::0                 0                       # Write request sizes (log2) (Count)
system.far_mem_ctrl.writePktSize::1                 0                       # Write request sizes (log2) (Count)
system.far_mem_ctrl.writePktSize::2                 0                       # Write request sizes (log2) (Count)
system.far_mem_ctrl.writePktSize::3                 0                       # Write request sizes (log2) (Count)
system.far_mem_ctrl.writePktSize::4                 0                       # Write request sizes (log2) (Count)
system.far_mem_ctrl.writePktSize::5                 0                       # Write request sizes (log2) (Count)
system.far_mem_ctrl.writePktSize::6           1324690                       # Write request sizes (log2) (Count)
system.far_mem_ctrl.rdQLenPdf::0                 3953                       # What read queue length does an incoming req see (Count)
system.far_mem_ctrl.rdQLenPdf::1                 4108                       # What read queue length does an incoming req see (Count)
system.far_mem_ctrl.rdQLenPdf::2                 4530                       # What read queue length does an incoming req see (Count)
system.far_mem_ctrl.rdQLenPdf::3                 4531                       # What read queue length does an incoming req see (Count)
system.far_mem_ctrl.rdQLenPdf::4                 4540                       # What read queue length does an incoming req see (Count)
system.far_mem_ctrl.rdQLenPdf::5                 4526                       # What read queue length does an incoming req see (Count)
system.far_mem_ctrl.rdQLenPdf::6                 4589                       # What read queue length does an incoming req see (Count)
system.far_mem_ctrl.rdQLenPdf::7                 4614                       # What read queue length does an incoming req see (Count)
system.far_mem_ctrl.rdQLenPdf::8                 6809                       # What read queue length does an incoming req see (Count)
system.far_mem_ctrl.rdQLenPdf::9                11050                       # What read queue length does an incoming req see (Count)
system.far_mem_ctrl.rdQLenPdf::10                4621                       # What read queue length does an incoming req see (Count)
system.far_mem_ctrl.rdQLenPdf::11                4698                       # What read queue length does an incoming req see (Count)
system.far_mem_ctrl.rdQLenPdf::12                5249                       # What read queue length does an incoming req see (Count)
system.far_mem_ctrl.rdQLenPdf::13              136216                       # What read queue length does an incoming req see (Count)
system.far_mem_ctrl.rdQLenPdf::14               14022                       # What read queue length does an incoming req see (Count)
system.far_mem_ctrl.rdQLenPdf::15               19570                       # What read queue length does an incoming req see (Count)
system.far_mem_ctrl.rdQLenPdf::16               59679                       # What read queue length does an incoming req see (Count)
system.far_mem_ctrl.rdQLenPdf::17               27875                       # What read queue length does an incoming req see (Count)
system.far_mem_ctrl.rdQLenPdf::18               53614                       # What read queue length does an incoming req see (Count)
system.far_mem_ctrl.rdQLenPdf::19               56120                       # What read queue length does an incoming req see (Count)
system.far_mem_ctrl.rdQLenPdf::20               75017                       # What read queue length does an incoming req see (Count)
system.far_mem_ctrl.rdQLenPdf::21               98672                       # What read queue length does an incoming req see (Count)
system.far_mem_ctrl.rdQLenPdf::22              108841                       # What read queue length does an incoming req see (Count)
system.far_mem_ctrl.rdQLenPdf::23               93761                       # What read queue length does an incoming req see (Count)
system.far_mem_ctrl.rdQLenPdf::24               52519                       # What read queue length does an incoming req see (Count)
system.far_mem_ctrl.rdQLenPdf::25               19883                       # What read queue length does an incoming req see (Count)
system.far_mem_ctrl.rdQLenPdf::26                7735                       # What read queue length does an incoming req see (Count)
system.far_mem_ctrl.rdQLenPdf::27                4925                       # What read queue length does an incoming req see (Count)
system.far_mem_ctrl.rdQLenPdf::28                3674                       # What read queue length does an incoming req see (Count)
system.far_mem_ctrl.rdQLenPdf::29                3022                       # What read queue length does an incoming req see (Count)
system.far_mem_ctrl.rdQLenPdf::30                3053                       # What read queue length does an incoming req see (Count)
system.far_mem_ctrl.rdQLenPdf::31                2807                       # What read queue length does an incoming req see (Count)
system.far_mem_ctrl.rdQLenPdf::32                3626                       # What read queue length does an incoming req see (Count)
system.far_mem_ctrl.rdQLenPdf::33                2779                       # What read queue length does an incoming req see (Count)
system.far_mem_ctrl.rdQLenPdf::34                2435                       # What read queue length does an incoming req see (Count)
system.far_mem_ctrl.rdQLenPdf::35                2724                       # What read queue length does an incoming req see (Count)
system.far_mem_ctrl.rdQLenPdf::36                2743                       # What read queue length does an incoming req see (Count)
system.far_mem_ctrl.rdQLenPdf::37                3018                       # What read queue length does an incoming req see (Count)
system.far_mem_ctrl.rdQLenPdf::38                3058                       # What read queue length does an incoming req see (Count)
system.far_mem_ctrl.rdQLenPdf::39                3357                       # What read queue length does an incoming req see (Count)
system.far_mem_ctrl.rdQLenPdf::40                2626                       # What read queue length does an incoming req see (Count)
system.far_mem_ctrl.rdQLenPdf::41                2891                       # What read queue length does an incoming req see (Count)
system.far_mem_ctrl.rdQLenPdf::42                3606                       # What read queue length does an incoming req see (Count)
system.far_mem_ctrl.rdQLenPdf::43                3548                       # What read queue length does an incoming req see (Count)
system.far_mem_ctrl.rdQLenPdf::44                5219                       # What read queue length does an incoming req see (Count)
system.far_mem_ctrl.rdQLenPdf::45                6101                       # What read queue length does an incoming req see (Count)
system.far_mem_ctrl.rdQLenPdf::46                6793                       # What read queue length does an incoming req see (Count)
system.far_mem_ctrl.rdQLenPdf::47                7167                       # What read queue length does an incoming req see (Count)
system.far_mem_ctrl.rdQLenPdf::48                9090                       # What read queue length does an incoming req see (Count)
system.far_mem_ctrl.rdQLenPdf::49                6918                       # What read queue length does an incoming req see (Count)
system.far_mem_ctrl.rdQLenPdf::50                7847                       # What read queue length does an incoming req see (Count)
system.far_mem_ctrl.rdQLenPdf::51                7978                       # What read queue length does an incoming req see (Count)
system.far_mem_ctrl.rdQLenPdf::52                6729                       # What read queue length does an incoming req see (Count)
system.far_mem_ctrl.rdQLenPdf::53                5466                       # What read queue length does an incoming req see (Count)
system.far_mem_ctrl.rdQLenPdf::54                6582                       # What read queue length does an incoming req see (Count)
system.far_mem_ctrl.rdQLenPdf::55                7036                       # What read queue length does an incoming req see (Count)
system.far_mem_ctrl.rdQLenPdf::56                7755                       # What read queue length does an incoming req see (Count)
system.far_mem_ctrl.rdQLenPdf::57                9175                       # What read queue length does an incoming req see (Count)
system.far_mem_ctrl.rdQLenPdf::58                9624                       # What read queue length does an incoming req see (Count)
system.far_mem_ctrl.rdQLenPdf::59               10266                       # What read queue length does an incoming req see (Count)
system.far_mem_ctrl.rdQLenPdf::60                9534                       # What read queue length does an incoming req see (Count)
system.far_mem_ctrl.rdQLenPdf::61               10323                       # What read queue length does an incoming req see (Count)
system.far_mem_ctrl.rdQLenPdf::62               12799                       # What read queue length does an incoming req see (Count)
system.far_mem_ctrl.rdQLenPdf::63              225395                       # What read queue length does an incoming req see (Count)
system.far_mem_ctrl.wrQLenPdf::0                    1                       # What write queue length does an incoming req see (Count)
system.far_mem_ctrl.wrQLenPdf::1                    1                       # What write queue length does an incoming req see (Count)
system.far_mem_ctrl.wrQLenPdf::2                    1                       # What write queue length does an incoming req see (Count)
system.far_mem_ctrl.wrQLenPdf::3                    1                       # What write queue length does an incoming req see (Count)
system.far_mem_ctrl.wrQLenPdf::4                    1                       # What write queue length does an incoming req see (Count)
system.far_mem_ctrl.wrQLenPdf::5                    1                       # What write queue length does an incoming req see (Count)
system.far_mem_ctrl.wrQLenPdf::6                    1                       # What write queue length does an incoming req see (Count)
system.far_mem_ctrl.wrQLenPdf::7                    1                       # What write queue length does an incoming req see (Count)
system.far_mem_ctrl.wrQLenPdf::8                    1                       # What write queue length does an incoming req see (Count)
system.far_mem_ctrl.wrQLenPdf::9                    1                       # What write queue length does an incoming req see (Count)
system.far_mem_ctrl.wrQLenPdf::10                   1                       # What write queue length does an incoming req see (Count)
system.far_mem_ctrl.wrQLenPdf::11                   1                       # What write queue length does an incoming req see (Count)
system.far_mem_ctrl.wrQLenPdf::12                   1                       # What write queue length does an incoming req see (Count)
system.far_mem_ctrl.wrQLenPdf::13                   1                       # What write queue length does an incoming req see (Count)
system.far_mem_ctrl.wrQLenPdf::14                   1                       # What write queue length does an incoming req see (Count)
system.far_mem_ctrl.wrQLenPdf::15                   1                       # What write queue length does an incoming req see (Count)
system.far_mem_ctrl.wrQLenPdf::16                   1                       # What write queue length does an incoming req see (Count)
system.far_mem_ctrl.wrQLenPdf::17                   1                       # What write queue length does an incoming req see (Count)
system.far_mem_ctrl.wrQLenPdf::18                   1                       # What write queue length does an incoming req see (Count)
system.far_mem_ctrl.wrQLenPdf::19                   1                       # What write queue length does an incoming req see (Count)
system.far_mem_ctrl.wrQLenPdf::20                   1                       # What write queue length does an incoming req see (Count)
system.far_mem_ctrl.wrQLenPdf::21                   1                       # What write queue length does an incoming req see (Count)
system.far_mem_ctrl.wrQLenPdf::22                   1                       # What write queue length does an incoming req see (Count)
system.far_mem_ctrl.wrQLenPdf::23                   1                       # What write queue length does an incoming req see (Count)
system.far_mem_ctrl.wrQLenPdf::24                   1                       # What write queue length does an incoming req see (Count)
system.far_mem_ctrl.wrQLenPdf::25                   1                       # What write queue length does an incoming req see (Count)
system.far_mem_ctrl.wrQLenPdf::26                   1                       # What write queue length does an incoming req see (Count)
system.far_mem_ctrl.wrQLenPdf::27                   1                       # What write queue length does an incoming req see (Count)
system.far_mem_ctrl.wrQLenPdf::28                   1                       # What write queue length does an incoming req see (Count)
system.far_mem_ctrl.wrQLenPdf::29                   1                       # What write queue length does an incoming req see (Count)
system.far_mem_ctrl.wrQLenPdf::30                   1                       # What write queue length does an incoming req see (Count)
system.far_mem_ctrl.wrQLenPdf::31                   1                       # What write queue length does an incoming req see (Count)
system.far_mem_ctrl.wrQLenPdf::32                   1                       # What write queue length does an incoming req see (Count)
system.far_mem_ctrl.wrQLenPdf::33                   1                       # What write queue length does an incoming req see (Count)
system.far_mem_ctrl.wrQLenPdf::34                   1                       # What write queue length does an incoming req see (Count)
system.far_mem_ctrl.wrQLenPdf::35                   1                       # What write queue length does an incoming req see (Count)
system.far_mem_ctrl.wrQLenPdf::36                   1                       # What write queue length does an incoming req see (Count)
system.far_mem_ctrl.wrQLenPdf::37                   1                       # What write queue length does an incoming req see (Count)
system.far_mem_ctrl.wrQLenPdf::38                   1                       # What write queue length does an incoming req see (Count)
system.far_mem_ctrl.wrQLenPdf::39                   1                       # What write queue length does an incoming req see (Count)
system.far_mem_ctrl.wrQLenPdf::40                   1                       # What write queue length does an incoming req see (Count)
system.far_mem_ctrl.wrQLenPdf::41                   1                       # What write queue length does an incoming req see (Count)
system.far_mem_ctrl.wrQLenPdf::42                   1                       # What write queue length does an incoming req see (Count)
system.far_mem_ctrl.wrQLenPdf::43                   1                       # What write queue length does an incoming req see (Count)
system.far_mem_ctrl.wrQLenPdf::44                   1                       # What write queue length does an incoming req see (Count)
system.far_mem_ctrl.wrQLenPdf::45                   1                       # What write queue length does an incoming req see (Count)
system.far_mem_ctrl.wrQLenPdf::46                   1                       # What write queue length does an incoming req see (Count)
system.far_mem_ctrl.wrQLenPdf::47                5370                       # What write queue length does an incoming req see (Count)
system.far_mem_ctrl.wrQLenPdf::48                7493                       # What write queue length does an incoming req see (Count)
system.far_mem_ctrl.wrQLenPdf::49                8109                       # What write queue length does an incoming req see (Count)
system.far_mem_ctrl.wrQLenPdf::50                7997                       # What write queue length does an incoming req see (Count)
system.far_mem_ctrl.wrQLenPdf::51                7911                       # What write queue length does an incoming req see (Count)
system.far_mem_ctrl.wrQLenPdf::52                8060                       # What write queue length does an incoming req see (Count)
system.far_mem_ctrl.wrQLenPdf::53                8142                       # What write queue length does an incoming req see (Count)
system.far_mem_ctrl.wrQLenPdf::54                8111                       # What write queue length does an incoming req see (Count)
system.far_mem_ctrl.wrQLenPdf::55                7995                       # What write queue length does an incoming req see (Count)
system.far_mem_ctrl.wrQLenPdf::56                7984                       # What write queue length does an incoming req see (Count)
system.far_mem_ctrl.wrQLenPdf::57                7937                       # What write queue length does an incoming req see (Count)
system.far_mem_ctrl.wrQLenPdf::58                8050                       # What write queue length does an incoming req see (Count)
system.far_mem_ctrl.wrQLenPdf::59                8046                       # What write queue length does an incoming req see (Count)
system.far_mem_ctrl.wrQLenPdf::60                8038                       # What write queue length does an incoming req see (Count)
system.far_mem_ctrl.wrQLenPdf::61                7925                       # What write queue length does an incoming req see (Count)
system.far_mem_ctrl.wrQLenPdf::62                7704                       # What write queue length does an incoming req see (Count)
system.far_mem_ctrl.wrQLenPdf::63                7956                       # What write queue length does an incoming req see (Count)
system.far_mem_ctrl.wrQLenPdf::64                8098                       # What write queue length does an incoming req see (Count)
system.far_mem_ctrl.wrQLenPdf::65                7106                       # What write queue length does an incoming req see (Count)
system.far_mem_ctrl.wrQLenPdf::66                6675                       # What write queue length does an incoming req see (Count)
system.far_mem_ctrl.wrQLenPdf::67                6195                       # What write queue length does an incoming req see (Count)
system.far_mem_ctrl.wrQLenPdf::68                5895                       # What write queue length does an incoming req see (Count)
system.far_mem_ctrl.wrQLenPdf::69                5662                       # What write queue length does an incoming req see (Count)
system.far_mem_ctrl.wrQLenPdf::70                5367                       # What write queue length does an incoming req see (Count)
system.far_mem_ctrl.wrQLenPdf::71                5148                       # What write queue length does an incoming req see (Count)
system.far_mem_ctrl.wrQLenPdf::72                4991                       # What write queue length does an incoming req see (Count)
system.far_mem_ctrl.wrQLenPdf::73                4790                       # What write queue length does an incoming req see (Count)
system.far_mem_ctrl.wrQLenPdf::74                4638                       # What write queue length does an incoming req see (Count)
system.far_mem_ctrl.wrQLenPdf::75                4494                       # What write queue length does an incoming req see (Count)
system.far_mem_ctrl.wrQLenPdf::76                4317                       # What write queue length does an incoming req see (Count)
system.far_mem_ctrl.wrQLenPdf::77                4240                       # What write queue length does an incoming req see (Count)
system.far_mem_ctrl.wrQLenPdf::78                4069                       # What write queue length does an incoming req see (Count)
system.far_mem_ctrl.wrQLenPdf::79                4026                       # What write queue length does an incoming req see (Count)
system.far_mem_ctrl.wrQLenPdf::80                3919                       # What write queue length does an incoming req see (Count)
system.far_mem_ctrl.wrQLenPdf::81                3830                       # What write queue length does an incoming req see (Count)
system.far_mem_ctrl.wrQLenPdf::82                3811                       # What write queue length does an incoming req see (Count)
system.far_mem_ctrl.wrQLenPdf::83                3730                       # What write queue length does an incoming req see (Count)
system.far_mem_ctrl.wrQLenPdf::84                3669                       # What write queue length does an incoming req see (Count)
system.far_mem_ctrl.wrQLenPdf::85                3658                       # What write queue length does an incoming req see (Count)
system.far_mem_ctrl.wrQLenPdf::86                3629                       # What write queue length does an incoming req see (Count)
system.far_mem_ctrl.wrQLenPdf::87                3607                       # What write queue length does an incoming req see (Count)
system.far_mem_ctrl.wrQLenPdf::88                3577                       # What write queue length does an incoming req see (Count)
system.far_mem_ctrl.wrQLenPdf::89                3546                       # What write queue length does an incoming req see (Count)
system.far_mem_ctrl.wrQLenPdf::90                3526                       # What write queue length does an incoming req see (Count)
system.far_mem_ctrl.wrQLenPdf::91                3511                       # What write queue length does an incoming req see (Count)
system.far_mem_ctrl.wrQLenPdf::92                3499                       # What write queue length does an incoming req see (Count)
system.far_mem_ctrl.wrQLenPdf::93                3493                       # What write queue length does an incoming req see (Count)
system.far_mem_ctrl.wrQLenPdf::94                3481                       # What write queue length does an incoming req see (Count)
system.far_mem_ctrl.wrQLenPdf::95                3464                       # What write queue length does an incoming req see (Count)
system.far_mem_ctrl.wrQLenPdf::96                3445                       # What write queue length does an incoming req see (Count)
system.far_mem_ctrl.wrQLenPdf::97                3428                       # What write queue length does an incoming req see (Count)
system.far_mem_ctrl.wrQLenPdf::98                3421                       # What write queue length does an incoming req see (Count)
system.far_mem_ctrl.wrQLenPdf::99                3418                       # What write queue length does an incoming req see (Count)
system.far_mem_ctrl.wrQLenPdf::100               3398                       # What write queue length does an incoming req see (Count)
system.far_mem_ctrl.wrQLenPdf::101               3381                       # What write queue length does an incoming req see (Count)
system.far_mem_ctrl.wrQLenPdf::102               3363                       # What write queue length does an incoming req see (Count)
system.far_mem_ctrl.wrQLenPdf::103               3355                       # What write queue length does an incoming req see (Count)
system.far_mem_ctrl.wrQLenPdf::104               3344                       # What write queue length does an incoming req see (Count)
system.far_mem_ctrl.wrQLenPdf::105               3340                       # What write queue length does an incoming req see (Count)
system.far_mem_ctrl.wrQLenPdf::106               3323                       # What write queue length does an incoming req see (Count)
system.far_mem_ctrl.wrQLenPdf::107               3305                       # What write queue length does an incoming req see (Count)
system.far_mem_ctrl.wrQLenPdf::108               3290                       # What write queue length does an incoming req see (Count)
system.far_mem_ctrl.wrQLenPdf::109               3281                       # What write queue length does an incoming req see (Count)
system.far_mem_ctrl.wrQLenPdf::110               3264                       # What write queue length does an incoming req see (Count)
system.far_mem_ctrl.wrQLenPdf::111               3255                       # What write queue length does an incoming req see (Count)
system.far_mem_ctrl.wrQLenPdf::112               3242                       # What write queue length does an incoming req see (Count)
system.far_mem_ctrl.wrQLenPdf::113               3222                       # What write queue length does an incoming req see (Count)
system.far_mem_ctrl.wrQLenPdf::114               3211                       # What write queue length does an incoming req see (Count)
system.far_mem_ctrl.wrQLenPdf::115               3194                       # What write queue length does an incoming req see (Count)
system.far_mem_ctrl.wrQLenPdf::116               3187                       # What write queue length does an incoming req see (Count)
system.far_mem_ctrl.wrQLenPdf::117               3170                       # What write queue length does an incoming req see (Count)
system.far_mem_ctrl.wrQLenPdf::118               3170                       # What write queue length does an incoming req see (Count)
system.far_mem_ctrl.wrQLenPdf::119               3170                       # What write queue length does an incoming req see (Count)
system.far_mem_ctrl.wrQLenPdf::120               3183                       # What write queue length does an incoming req see (Count)
system.far_mem_ctrl.wrQLenPdf::121               3233                       # What write queue length does an incoming req see (Count)
system.far_mem_ctrl.wrQLenPdf::122               3357                       # What write queue length does an incoming req see (Count)
system.far_mem_ctrl.wrQLenPdf::123               3792                       # What write queue length does an incoming req see (Count)
system.far_mem_ctrl.wrQLenPdf::124               4571                       # What write queue length does an incoming req see (Count)
system.far_mem_ctrl.wrQLenPdf::125               6643                       # What write queue length does an incoming req see (Count)
system.far_mem_ctrl.wrQLenPdf::126              15526                       # What write queue length does an incoming req see (Count)
system.far_mem_ctrl.wrQLenPdf::127             182059                       # What write queue length does an incoming req see (Count)
system.far_mem_ctrl.rdPerTurnAround::samples         5370                       # Reads before turning the bus around for writes (Count)
system.far_mem_ctrl.rdPerTurnAround::0           5370    100.00%    100.00% # Reads before turning the bus around for writes (Count)
system.far_mem_ctrl.rdPerTurnAround::total         5370                       # Reads before turning the bus around for writes (Count)
system.far_mem_ctrl.wrPerTurnAround::samples         5369                       # Writes before turning the bus around for reads (Count)
system.far_mem_ctrl.wrPerTurnAround::0           5369    100.00%    100.00% # Writes before turning the bus around for reads (Count)
system.far_mem_ctrl.wrPerTurnAround::total         5369                       # Writes before turning the bus around for reads (Count)
system.far_mem_ctrl.bytesReadWrQ               112000                       # Total number of bytes read from write queue (Byte)
system.far_mem_ctrl.bytesReadSys             84785984                       # Total read bytes from the system interface side (Byte)
system.far_mem_ctrl.bytesWrittenSys          84780160                       # Total written bytes from the system interface side (Byte)
system.far_mem_ctrl.avgRdBWSys           8478598400.00000000                       # Average system read bandwidth in Byte/s ((Byte/Second))
system.far_mem_ctrl.avgWrBWSys           8478016000.00000000                       # Average system write bandwidth in Byte/s ((Byte/Second))
system.far_mem_ctrl.totGap                 9999932338                       # Total gap between requests (Tick)
system.far_mem_ctrl.avgGap                    3774.31                       # Average gap between requests ((Tick/Count))
system.far_mem_ctrl.requestorReadBytes::writebacks     84673984                       # Per-requestor bytes read from memory (Byte)
system.far_mem_ctrl.requestorWriteBytes::writebacks     36988736                       # Per-requestor bytes write to memory (Byte)
system.far_mem_ctrl.requestorReadRate::writebacks 8467398400.000000000000                       # Per-requestor bytes read from memory rate ((Byte/Second))
system.far_mem_ctrl.requestorWriteRate::writebacks 3698873600.000000000000                       # Per-requestor bytes write to memory rate ((Byte/Second))
system.far_mem_ctrl.requestorReadAccesses::writebacks      1324781                       # Per-requestor read serviced memory accesses (Count)
system.far_mem_ctrl.requestorWriteAccesses::writebacks      1324690                       # Per-requestor write serviced memory accesses (Count)
system.far_mem_ctrl.requestorReadTotalLat::writebacks 169496313336                       # Per-requestor read total memory access latency (Tick)
system.far_mem_ctrl.requestorWriteTotalLat::writebacks 864414605374                       # Per-requestor write total memory access latency (Tick)
system.far_mem_ctrl.requestorReadAvgLat::writebacks    127942.89                       # Per-requestor read average memory access latency ((Tick/Count))
system.far_mem_ctrl.requestorWriteAvgLat::writebacks    652541.05                       # Per-requestor write average memory access latency ((Tick/Count))
system.far_mem_ctrl.dram.bytesRead::writebacks     84785984                       # Number of bytes read from this memory (Byte)
system.far_mem_ctrl.dram.bytesRead::total     84785984                       # Number of bytes read from this memory (Byte)
system.far_mem_ctrl.dram.bytesWritten::writebacks     84780160                       # Number of bytes written to this memory (Byte)
system.far_mem_ctrl.dram.bytesWritten::total     84780160                       # Number of bytes written to this memory (Byte)
system.far_mem_ctrl.dram.numReads::writebacks      1324781                       # Number of read requests responded to by this memory (Count)
system.far_mem_ctrl.dram.numReads::total      1324781                       # Number of read requests responded to by this memory (Count)
system.far_mem_ctrl.dram.numWrites::writebacks      1324690                       # Number of write requests responded to by this memory (Count)
system.far_mem_ctrl.dram.numWrites::total      1324690                       # Number of write requests responded to by this memory (Count)
system.far_mem_ctrl.dram.bwRead::writebacks   8478598400                       # Total read bandwidth from this memory ((Byte/Second))
system.far_mem_ctrl.dram.bwRead::total     8478598400                       # Total read bandwidth from this memory ((Byte/Second))
system.far_mem_ctrl.dram.bwWrite::writebacks   8478016000                       # Write bandwidth from this memory ((Byte/Second))
system.far_mem_ctrl.dram.bwWrite::total    8478016000                       # Write bandwidth from this memory ((Byte/Second))
system.far_mem_ctrl.dram.bwTotal::writebacks  16956614400                       # Total bandwidth to/from this memory ((Byte/Second))
system.far_mem_ctrl.dram.bwTotal::total   16956614400                       # Total bandwidth to/from this memory ((Byte/Second))
system.far_mem_ctrl.dram.readBursts           1323031                       # Number of DRAM read bursts (Count)
system.far_mem_ctrl.dram.writeBursts           577949                       # Number of DRAM write bursts (Count)
system.far_mem_ctrl.dram.perBankRdBursts::0        41213                       # Per bank write bursts (Count)
system.far_mem_ctrl.dram.perBankRdBursts::1        41104                       # Per bank write bursts (Count)
system.far_mem_ctrl.dram.perBankRdBursts::2        41333                       # Per bank write bursts (Count)
system.far_mem_ctrl.dram.perBankRdBursts::3        41449                       # Per bank write bursts (Count)
system.far_mem_ctrl.dram.perBankRdBursts::4        41614                       # Per bank write bursts (Count)
system.far_mem_ctrl.dram.perBankRdBursts::5        41498                       # Per bank write bursts (Count)
system.far_mem_ctrl.dram.perBankRdBursts::6        41130                       # Per bank write bursts (Count)
system.far_mem_ctrl.dram.perBankRdBursts::7        41347                       # Per bank write bursts (Count)
system.far_mem_ctrl.dram.perBankRdBursts::8        41009                       # Per bank write bursts (Count)
system.far_mem_ctrl.dram.perBankRdBursts::9        41430                       # Per bank write bursts (Count)
system.far_mem_ctrl.dram.perBankRdBursts::10        41589                       # Per bank write bursts (Count)
system.far_mem_ctrl.dram.perBankRdBursts::11        41392                       # Per bank write bursts (Count)
system.far_mem_ctrl.dram.perBankRdBursts::12        41688                       # Per bank write bursts (Count)
system.far_mem_ctrl.dram.perBankRdBursts::13        41235                       # Per bank write bursts (Count)
system.far_mem_ctrl.dram.perBankRdBursts::14        41204                       # Per bank write bursts (Count)
system.far_mem_ctrl.dram.perBankRdBursts::15        41584                       # Per bank write bursts (Count)
system.far_mem_ctrl.dram.perBankRdBursts::16        41383                       # Per bank write bursts (Count)
system.far_mem_ctrl.dram.perBankRdBursts::17        41355                       # Per bank write bursts (Count)
system.far_mem_ctrl.dram.perBankRdBursts::18        41436                       # Per bank write bursts (Count)
system.far_mem_ctrl.dram.perBankRdBursts::19        41320                       # Per bank write bursts (Count)
system.far_mem_ctrl.dram.perBankRdBursts::20        40963                       # Per bank write bursts (Count)
system.far_mem_ctrl.dram.perBankRdBursts::21        41212                       # Per bank write bursts (Count)
system.far_mem_ctrl.dram.perBankRdBursts::22        41530                       # Per bank write bursts (Count)
system.far_mem_ctrl.dram.perBankRdBursts::23        41310                       # Per bank write bursts (Count)
system.far_mem_ctrl.dram.perBankRdBursts::24        41316                       # Per bank write bursts (Count)
system.far_mem_ctrl.dram.perBankRdBursts::25        41112                       # Per bank write bursts (Count)
system.far_mem_ctrl.dram.perBankRdBursts::26        41287                       # Per bank write bursts (Count)
system.far_mem_ctrl.dram.perBankRdBursts::27        41334                       # Per bank write bursts (Count)
system.far_mem_ctrl.dram.perBankRdBursts::28        41488                       # Per bank write bursts (Count)
system.far_mem_ctrl.dram.perBankRdBursts::29        41125                       # Per bank write bursts (Count)
system.far_mem_ctrl.dram.perBankRdBursts::30        41376                       # Per bank write bursts (Count)
system.far_mem_ctrl.dram.perBankRdBursts::31        41665                       # Per bank write bursts (Count)
system.far_mem_ctrl.dram.perBankWrBursts::0        22951                       # Per bank write bursts (Count)
system.far_mem_ctrl.dram.perBankWrBursts::1        17738                       # Per bank write bursts (Count)
system.far_mem_ctrl.dram.perBankWrBursts::2        17800                       # Per bank write bursts (Count)
system.far_mem_ctrl.dram.perBankWrBursts::3        18016                       # Per bank write bursts (Count)
system.far_mem_ctrl.dram.perBankWrBursts::4        18112                       # Per bank write bursts (Count)
system.far_mem_ctrl.dram.perBankWrBursts::5        18037                       # Per bank write bursts (Count)
system.far_mem_ctrl.dram.perBankWrBursts::6        17753                       # Per bank write bursts (Count)
system.far_mem_ctrl.dram.perBankWrBursts::7        17834                       # Per bank write bursts (Count)
system.far_mem_ctrl.dram.perBankWrBursts::8        17690                       # Per bank write bursts (Count)
system.far_mem_ctrl.dram.perBankWrBursts::9        17970                       # Per bank write bursts (Count)
system.far_mem_ctrl.dram.perBankWrBursts::10        18096                       # Per bank write bursts (Count)
system.far_mem_ctrl.dram.perBankWrBursts::11        17819                       # Per bank write bursts (Count)
system.far_mem_ctrl.dram.perBankWrBursts::12        18098                       # Per bank write bursts (Count)
system.far_mem_ctrl.dram.perBankWrBursts::13        17807                       # Per bank write bursts (Count)
system.far_mem_ctrl.dram.perBankWrBursts::14        17879                       # Per bank write bursts (Count)
system.far_mem_ctrl.dram.perBankWrBursts::15        18115                       # Per bank write bursts (Count)
system.far_mem_ctrl.dram.perBankWrBursts::16        17915                       # Per bank write bursts (Count)
system.far_mem_ctrl.dram.perBankWrBursts::17        17930                       # Per bank write bursts (Count)
system.far_mem_ctrl.dram.perBankWrBursts::18        17987                       # Per bank write bursts (Count)
system.far_mem_ctrl.dram.perBankWrBursts::19        17850                       # Per bank write bursts (Count)
system.far_mem_ctrl.dram.perBankWrBursts::20        17695                       # Per bank write bursts (Count)
system.far_mem_ctrl.dram.perBankWrBursts::21        17856                       # Per bank write bursts (Count)
system.far_mem_ctrl.dram.perBankWrBursts::22        17953                       # Per bank write bursts (Count)
system.far_mem_ctrl.dram.perBankWrBursts::23        17827                       # Per bank write bursts (Count)
system.far_mem_ctrl.dram.perBankWrBursts::24        17899                       # Per bank write bursts (Count)
system.far_mem_ctrl.dram.perBankWrBursts::25        17753                       # Per bank write bursts (Count)
system.far_mem_ctrl.dram.perBankWrBursts::26        17838                       # Per bank write bursts (Count)
system.far_mem_ctrl.dram.perBankWrBursts::27        17986                       # Per bank write bursts (Count)
system.far_mem_ctrl.dram.perBankWrBursts::28        18074                       # Per bank write bursts (Count)
system.far_mem_ctrl.dram.perBankWrBursts::29        17689                       # Per bank write bursts (Count)
system.far_mem_ctrl.dram.perBankWrBursts::30        17840                       # Per bank write bursts (Count)
system.far_mem_ctrl.dram.perBankWrBursts::31        18142                       # Per bank write bursts (Count)
system.far_mem_ctrl.dram.totQLat         146353855084                       # Total ticks spent queuing (Tick)
system.far_mem_ctrl.dram.totBusLat         4408339292                       # Total ticks spent in databus transfers (Tick)
system.far_mem_ctrl.dram.totMemAccLat    169496313336                       # Total ticks spent from burst creation until serviced by the DRAM (Tick)
system.far_mem_ctrl.dram.avgQLat            110620.13                       # Average queueing delay per DRAM burst ((Tick/Count))
system.far_mem_ctrl.dram.avgBusLat            3332.00                       # Average bus latency per DRAM burst ((Tick/Count))
system.far_mem_ctrl.dram.avgMemAccLat       128112.13                       # Average memory access latency per DRAM burst ((Tick/Count))
system.far_mem_ctrl.dram.readRowHits              435                       # Number of row buffer hits during reads (Count)
system.far_mem_ctrl.dram.writeRowHits            1801                       # Number of row buffer hits during writes (Count)
system.far_mem_ctrl.dram.readRowHitRate          0.03                       # Row buffer hit rate for reads (Ratio)
system.far_mem_ctrl.dram.writeRowHitRate         0.31                       # Row buffer hit rate for writes (Ratio)
system.far_mem_ctrl.dram.bytesPerActivate::samples      1898738                       # Bytes accessed per row activation (Byte)
system.far_mem_ctrl.dram.bytesPerActivate::mean    64.075368                       # Bytes accessed per row activation (Byte)
system.far_mem_ctrl.dram.bytesPerActivate::gmean    64.040110                       # Bytes accessed per row activation (Byte)
system.far_mem_ctrl.dram.bytesPerActivate::stdev     4.595416                       # Bytes accessed per row activation (Byte)
system.far_mem_ctrl.dram.bytesPerActivate::0-127      1897244     99.92%     99.92% # Bytes accessed per row activation (Byte)
system.far_mem_ctrl.dram.bytesPerActivate::128-255         1389      0.07%     99.99% # Bytes accessed per row activation (Byte)
system.far_mem_ctrl.dram.bytesPerActivate::256-383           33      0.00%    100.00% # Bytes accessed per row activation (Byte)
system.far_mem_ctrl.dram.bytesPerActivate::384-511           20      0.00%    100.00% # Bytes accessed per row activation (Byte)
system.far_mem_ctrl.dram.bytesPerActivate::512-639           12      0.00%    100.00% # Bytes accessed per row activation (Byte)
system.far_mem_ctrl.dram.bytesPerActivate::640-767           12      0.00%    100.00% # Bytes accessed per row activation (Byte)
system.far_mem_ctrl.dram.bytesPerActivate::768-895            7      0.00%    100.00% # Bytes accessed per row activation (Byte)
system.far_mem_ctrl.dram.bytesPerActivate::896-1023            3      0.00%    100.00% # Bytes accessed per row activation (Byte)
system.far_mem_ctrl.dram.bytesPerActivate::1024-1151           18      0.00%    100.00% # Bytes accessed per row activation (Byte)
system.far_mem_ctrl.dram.bytesPerActivate::total      1898738                       # Bytes accessed per row activation (Byte)
system.far_mem_ctrl.dram.bytesRead           84673984                       # Total bytes read (Byte)
system.far_mem_ctrl.dram.bytesWritten        36988736                       # Total bytes written (Byte)
system.far_mem_ctrl.dram.avgRdBW          8467.398400                       # Average DRAM read bandwidth in MiBytes/s ((Byte/Second))
system.far_mem_ctrl.dram.avgWrBW          3698.873600                       # Average DRAM write bandwidth in MiBytes/s ((Byte/Second))
system.far_mem_ctrl.dram.peakBW              19207.00                       # Theoretical peak bandwidth in MiByte/s ((Byte/Second))
system.far_mem_ctrl.dram.busUtil                63.34                       # Data bus utilization in percentage (Ratio)
system.far_mem_ctrl.dram.busUtilRead            44.08                       # Data bus utilization in percentage for reads (Ratio)
system.far_mem_ctrl.dram.busUtilWrite           19.26                       # Data bus utilization in percentage for writes (Ratio)
system.far_mem_ctrl.dram.pageHitRate             0.12                       # Row buffer hit rate, read and write combined (Ratio)
system.far_mem_ctrl.dram.power_state.pwrStateResidencyTicks::UNDEFINED  10000000000                       # Cumulative time (in ticks) in various power states (Tick)
system.far_mem_ctrl.dram.rank0.actEnergy 2969005122.719998                       # Energy for activate commands per rank (pJ) (Joule)
system.far_mem_ctrl.dram.rank0.preEnergy 3947204490.398402                       # Energy for precharge commands per rank (pJ) (Joule)
system.far_mem_ctrl.dram.rank0.readEnergy 2783820378.259202                       # Energy for read commands per rank (pJ) (Joule)
system.far_mem_ctrl.dram.rank0.writeEnergy 1096379592.671999                       # Energy for write commands per rank (pJ) (Joule)
system.far_mem_ctrl.dram.rank0.refreshEnergy 1778824873.324749                       # Energy for refresh commands per rank (pJ) (Joule)
system.far_mem_ctrl.dram.rank0.actBackEnergy 8308868410.684793                       # Energy for active background per rank (pJ) (Joule)
system.far_mem_ctrl.dram.rank0.preBackEnergy 143784767.078400                       # Energy for precharge background per rank (pJ) (Joule)
system.far_mem_ctrl.dram.rank0.actPowerDownEnergy            0                       # Energy for active power-down per rank (pJ) (Joule)
system.far_mem_ctrl.dram.rank0.prePowerDownEnergy            0                       # Energy for precharge power-down per rank (pJ) (Joule)
system.far_mem_ctrl.dram.rank0.selfRefreshEnergy            0                       # Energy for self refresh per rank (pJ) (Joule)
system.far_mem_ctrl.dram.rank0.totalEnergy 21027887635.137619                       # Total energy per rank (pJ) (Joule)
system.far_mem_ctrl.dram.rank0.averagePower  2102.788764                       # Core power per rank (mW) (Watt)
system.far_mem_ctrl.dram.rank0.totalIdleTime            0                       # Total Idle time Per DRAM Rank (Tick)
system.far_mem_ctrl.dram.rank0.pwrStateTime::IDLE    184135630                       # Time in different power states (Tick)
system.far_mem_ctrl.dram.rank0.pwrStateTime::REF    449400000                       # Time in different power states (Tick)
system.far_mem_ctrl.dram.rank0.pwrStateTime::SREF            0                       # Time in different power states (Tick)
system.far_mem_ctrl.dram.rank0.pwrStateTime::PRE_PDN            0                       # Time in different power states (Tick)
system.far_mem_ctrl.dram.rank0.pwrStateTime::ACT   9366464370                       # Time in different power states (Tick)
system.far_mem_ctrl.dram.rank0.pwrStateTime::ACT_PDN            0                       # Time in different power states (Tick)
system.far_mem_ctrl.dram.rank1.actEnergy 2952694049.759997                       # Energy for activate commands per rank (pJ) (Joule)
system.far_mem_ctrl.dram.rank1.preEnergy 3925544006.059198                       # Energy for precharge commands per rank (pJ) (Joule)
system.far_mem_ctrl.dram.rank1.readEnergy 2781267143.961602                       # Energy for read commands per rank (pJ) (Joule)
system.far_mem_ctrl.dram.rank1.writeEnergy 1075809344.063999                       # Energy for write commands per rank (pJ) (Joule)
system.far_mem_ctrl.dram.rank1.refreshEnergy 1778824873.324749                       # Energy for refresh commands per rank (pJ) (Joule)
system.far_mem_ctrl.dram.rank1.actBackEnergy 8305893876.974401                       # Energy for active background per rank (pJ) (Joule)
system.far_mem_ctrl.dram.rank1.preBackEnergy 146070284.505600                       # Energy for precharge background per rank (pJ) (Joule)
system.far_mem_ctrl.dram.rank1.actPowerDownEnergy            0                       # Energy for active power-down per rank (pJ) (Joule)
system.far_mem_ctrl.dram.rank1.prePowerDownEnergy            0                       # Energy for precharge power-down per rank (pJ) (Joule)
system.far_mem_ctrl.dram.rank1.selfRefreshEnergy            0                       # Energy for self refresh per rank (pJ) (Joule)
system.far_mem_ctrl.dram.rank1.totalEnergy 20966103578.649574                       # Total energy per rank (pJ) (Joule)
system.far_mem_ctrl.dram.rank1.averagePower  2096.610358                       # Core power per rank (mW) (Watt)
system.far_mem_ctrl.dram.rank1.totalIdleTime            0                       # Total Idle time Per DRAM Rank (Tick)
system.far_mem_ctrl.dram.rank1.pwrStateTime::IDLE    187620928                       # Time in different power states (Tick)
system.far_mem_ctrl.dram.rank1.pwrStateTime::REF    449400000                       # Time in different power states (Tick)
system.far_mem_ctrl.dram.rank1.pwrStateTime::SREF            0                       # Time in different power states (Tick)
system.far_mem_ctrl.dram.rank1.pwrStateTime::PRE_PDN            0                       # Time in different power states (Tick)
system.far_mem_ctrl.dram.rank1.pwrStateTime::ACT   9362979072                       # Time in different power states (Tick)
system.far_mem_ctrl.dram.rank1.pwrStateTime::ACT_PDN            0                       # Time in different power states (Tick)
system.far_mem_ctrl.power_state.pwrStateResidencyTicks::UNDEFINED  10000000000                       # Cumulative time (in ticks) in various power states (Tick)
system.generator.numSuppressed                      0                       # Number of suppressed packets to non-memory space (Count)
system.generator.numPackets                   1324891                       # Number of packets generated (Count)
system.generator.numRetries                   1224047                       # Number of retries (Count)
system.generator.retryTicks                9897222127                       # Time spent waiting due to back-pressure (Tick)
system.generator.bytesRead                   84785984                       # Number of bytes read (Byte)
system.generator.bytesWritten                       0                       # Number of bytes written (Byte)
system.generator.totalReadLatency        1802250564321                       # Total latency of read requests (Tick)
system.generator.totalWriteLatency                  0                       # Total latency of write requests (Tick)
system.generator.totalReads                   1324781                       # Total num of reads (Count)
system.generator.totalWrites                        0                       # Total num of writes (Count)
system.generator.avgReadLatency          1360413.958474                       # Avg latency of read requests ((Tick/Count))
system.generator.avgWriteLatency                  nan                       # Avg latency of write requests ((Tick/Count))
system.generator.readBW                    8478598400                       # Read bandwidth ((Byte/Second))
system.generator.writeBW                            0                       # Write bandwidth ((Byte/Second))
system.generator.power_state.pwrStateResidencyTicks::UNDEFINED  10000000000                       # Cumulative time (in ticks) in various power states (Tick)
system.loc_mem_ctrl.avgPriority_writebacks::samples   2649489.00                       # Average QoS priority value for accepted requests (Count)
system.loc_mem_ctrl.priorityMinLatency   0.000000044812                       # per QoS priority minimum request to response latency (Second)
system.loc_mem_ctrl.priorityMaxLatency   0.000012305054                       # per QoS priority maximum request to response latency (Second)
system.loc_mem_ctrl.numReadWriteTurnArounds            0                       # Number of turnarounds from READ to WRITE (Count)
system.loc_mem_ctrl.numWriteReadTurnArounds            0                       # Number of turnarounds from WRITE to READ (Count)
system.loc_mem_ctrl.numStayReadState          2659348                       # Number of times bus staying in READ state (Count)
system.loc_mem_ctrl.numStayWriteState               0                       # Number of times bus staying in WRITE state (Count)
system.loc_mem_ctrl.readReqs                  1324845                       # Number of read requests accepted (Count)
system.loc_mem_ctrl.writeReqs                 1324649                       # Number of write requests accepted (Count)
system.loc_mem_ctrl.readBursts                1324845                       # Number of controller read bursts, including those serviced by the write queue (Count)
system.loc_mem_ctrl.writeBursts               1324649                       # Number of controller write bursts, including those merged in the write queue (Count)
system.loc_mem_ctrl.servicedByWrQ                   4                       # Number of controller read bursts serviced by the write queue (Count)
system.loc_mem_ctrl.mergedWrBursts                  1                       # Number of controller write bursts merged with an existing one (Count)
system.loc_mem_ctrl.avgRdQLen                   61.65                       # Average read queue length when enqueuing ((Count/Tick))
system.loc_mem_ctrl.avgWrQLen                  121.56                       # Average write queue length when enqueuing ((Count/Tick))
system.loc_mem_ctrl.numRdRetry                2681492                       # Number of times read queue was full causing retry (Count)
system.loc_mem_ctrl.numWrRetry                2497350                       # Number of times write queue was full causing retry (Count)
system.loc_mem_ctrl.readPktSize::0                  0                       # Read request sizes (log2) (Count)
system.loc_mem_ctrl.readPktSize::1                  0                       # Read request sizes (log2) (Count)
system.loc_mem_ctrl.readPktSize::2                  0                       # Read request sizes (log2) (Count)
system.loc_mem_ctrl.readPktSize::3                  0                       # Read request sizes (log2) (Count)
system.loc_mem_ctrl.readPktSize::4                  0                       # Read request sizes (log2) (Count)
system.loc_mem_ctrl.readPktSize::5                  0                       # Read request sizes (log2) (Count)
system.loc_mem_ctrl.readPktSize::6            1324845                       # Read request sizes (log2) (Count)
system.loc_mem_ctrl.writePktSize::0                 0                       # Write request sizes (log2) (Count)
system.loc_mem_ctrl.writePktSize::1                 0                       # Write request sizes (log2) (Count)
system.loc_mem_ctrl.writePktSize::2                 0                       # Write request sizes (log2) (Count)
system.loc_mem_ctrl.writePktSize::3                 0                       # Write request sizes (log2) (Count)
system.loc_mem_ctrl.writePktSize::4                 0                       # Write request sizes (log2) (Count)
system.loc_mem_ctrl.writePktSize::5                 0                       # Write request sizes (log2) (Count)
system.loc_mem_ctrl.writePktSize::6           1324649                       # Write request sizes (log2) (Count)
system.loc_mem_ctrl.rdQLenPdf::0                 1121                       # What read queue length does an incoming req see (Count)
system.loc_mem_ctrl.rdQLenPdf::1                 2676                       # What read queue length does an incoming req see (Count)
system.loc_mem_ctrl.rdQLenPdf::2                 3527                       # What read queue length does an incoming req see (Count)
system.loc_mem_ctrl.rdQLenPdf::3                 3897                       # What read queue length does an incoming req see (Count)
system.loc_mem_ctrl.rdQLenPdf::4                 4107                       # What read queue length does an incoming req see (Count)
system.loc_mem_ctrl.rdQLenPdf::5                 4230                       # What read queue length does an incoming req see (Count)
system.loc_mem_ctrl.rdQLenPdf::6                 4172                       # What read queue length does an incoming req see (Count)
system.loc_mem_ctrl.rdQLenPdf::7                 4243                       # What read queue length does an incoming req see (Count)
system.loc_mem_ctrl.rdQLenPdf::8                 4115                       # What read queue length does an incoming req see (Count)
system.loc_mem_ctrl.rdQLenPdf::9                 4265                       # What read queue length does an incoming req see (Count)
system.loc_mem_ctrl.rdQLenPdf::10                6897                       # What read queue length does an incoming req see (Count)
system.loc_mem_ctrl.rdQLenPdf::11                3933                       # What read queue length does an incoming req see (Count)
system.loc_mem_ctrl.rdQLenPdf::12                3932                       # What read queue length does an incoming req see (Count)
system.loc_mem_ctrl.rdQLenPdf::13                3932                       # What read queue length does an incoming req see (Count)
system.loc_mem_ctrl.rdQLenPdf::14                3932                       # What read queue length does an incoming req see (Count)
system.loc_mem_ctrl.rdQLenPdf::15                3932                       # What read queue length does an incoming req see (Count)
system.loc_mem_ctrl.rdQLenPdf::16                3932                       # What read queue length does an incoming req see (Count)
system.loc_mem_ctrl.rdQLenPdf::17                3933                       # What read queue length does an incoming req see (Count)
system.loc_mem_ctrl.rdQLenPdf::18                3932                       # What read queue length does an incoming req see (Count)
system.loc_mem_ctrl.rdQLenPdf::19                3932                       # What read queue length does an incoming req see (Count)
system.loc_mem_ctrl.rdQLenPdf::20                3932                       # What read queue length does an incoming req see (Count)
system.loc_mem_ctrl.rdQLenPdf::21                3932                       # What read queue length does an incoming req see (Count)
system.loc_mem_ctrl.rdQLenPdf::22                3932                       # What read queue length does an incoming req see (Count)
system.loc_mem_ctrl.rdQLenPdf::23                3932                       # What read queue length does an incoming req see (Count)
system.loc_mem_ctrl.rdQLenPdf::24                3932                       # What read queue length does an incoming req see (Count)
system.loc_mem_ctrl.rdQLenPdf::25                3932                       # What read queue length does an incoming req see (Count)
system.loc_mem_ctrl.rdQLenPdf::26                3932                       # What read queue length does an incoming req see (Count)
system.loc_mem_ctrl.rdQLenPdf::27                3932                       # What read queue length does an incoming req see (Count)
system.loc_mem_ctrl.rdQLenPdf::28                3943                       # What read queue length does an incoming req see (Count)
system.loc_mem_ctrl.rdQLenPdf::29                3938                       # What read queue length does an incoming req see (Count)
system.loc_mem_ctrl.rdQLenPdf::30                3932                       # What read queue length does an incoming req see (Count)
system.loc_mem_ctrl.rdQLenPdf::31                3932                       # What read queue length does an incoming req see (Count)
system.loc_mem_ctrl.rdQLenPdf::32                3932                       # What read queue length does an incoming req see (Count)
system.loc_mem_ctrl.rdQLenPdf::33                3932                       # What read queue length does an incoming req see (Count)
system.loc_mem_ctrl.rdQLenPdf::34                3932                       # What read queue length does an incoming req see (Count)
system.loc_mem_ctrl.rdQLenPdf::35                3932                       # What read queue length does an incoming req see (Count)
system.loc_mem_ctrl.rdQLenPdf::36                3932                       # What read queue length does an incoming req see (Count)
system.loc_mem_ctrl.rdQLenPdf::37                3932                       # What read queue length does an incoming req see (Count)
system.loc_mem_ctrl.rdQLenPdf::38                3932                       # What read queue length does an incoming req see (Count)
system.loc_mem_ctrl.rdQLenPdf::39                3932                       # What read queue length does an incoming req see (Count)
system.loc_mem_ctrl.rdQLenPdf::40                3932                       # What read queue length does an incoming req see (Count)
system.loc_mem_ctrl.rdQLenPdf::41                3932                       # What read queue length does an incoming req see (Count)
system.loc_mem_ctrl.rdQLenPdf::42                3943                       # What read queue length does an incoming req see (Count)
system.loc_mem_ctrl.rdQLenPdf::43                3932                       # What read queue length does an incoming req see (Count)
system.loc_mem_ctrl.rdQLenPdf::44                3933                       # What read queue length does an incoming req see (Count)
system.loc_mem_ctrl.rdQLenPdf::45                3932                       # What read queue length does an incoming req see (Count)
system.loc_mem_ctrl.rdQLenPdf::46                3932                       # What read queue length does an incoming req see (Count)
system.loc_mem_ctrl.rdQLenPdf::47                3932                       # What read queue length does an incoming req see (Count)
system.loc_mem_ctrl.rdQLenPdf::48                3933                       # What read queue length does an incoming req see (Count)
system.loc_mem_ctrl.rdQLenPdf::49                3932                       # What read queue length does an incoming req see (Count)
system.loc_mem_ctrl.rdQLenPdf::50                3932                       # What read queue length does an incoming req see (Count)
system.loc_mem_ctrl.rdQLenPdf::51                3933                       # What read queue length does an incoming req see (Count)
system.loc_mem_ctrl.rdQLenPdf::52                3958                       # What read queue length does an incoming req see (Count)
system.loc_mem_ctrl.rdQLenPdf::53                3933                       # What read queue length does an incoming req see (Count)
system.loc_mem_ctrl.rdQLenPdf::54                3932                       # What read queue length does an incoming req see (Count)
system.loc_mem_ctrl.rdQLenPdf::55                3933                       # What read queue length does an incoming req see (Count)
system.loc_mem_ctrl.rdQLenPdf::56                3932                       # What read queue length does an incoming req see (Count)
system.loc_mem_ctrl.rdQLenPdf::57                3959                       # What read queue length does an incoming req see (Count)
system.loc_mem_ctrl.rdQLenPdf::58                3941                       # What read queue length does an incoming req see (Count)
system.loc_mem_ctrl.rdQLenPdf::59                3961                       # What read queue length does an incoming req see (Count)
system.loc_mem_ctrl.rdQLenPdf::60                3936                       # What read queue length does an incoming req see (Count)
system.loc_mem_ctrl.rdQLenPdf::61                3932                       # What read queue length does an incoming req see (Count)
system.loc_mem_ctrl.rdQLenPdf::62                3933                       # What read queue length does an incoming req see (Count)
system.loc_mem_ctrl.rdQLenPdf::63             1076996                       # What read queue length does an incoming req see (Count)
system.loc_mem_ctrl.wrQLenPdf::0                    1                       # What write queue length does an incoming req see (Count)
system.loc_mem_ctrl.wrQLenPdf::1                    1                       # What write queue length does an incoming req see (Count)
system.loc_mem_ctrl.wrQLenPdf::2                    1                       # What write queue length does an incoming req see (Count)
system.loc_mem_ctrl.wrQLenPdf::3                    1                       # What write queue length does an incoming req see (Count)
system.loc_mem_ctrl.wrQLenPdf::4                    1                       # What write queue length does an incoming req see (Count)
system.loc_mem_ctrl.wrQLenPdf::5                    1                       # What write queue length does an incoming req see (Count)
system.loc_mem_ctrl.wrQLenPdf::6                    1                       # What write queue length does an incoming req see (Count)
system.loc_mem_ctrl.wrQLenPdf::7                    1                       # What write queue length does an incoming req see (Count)
system.loc_mem_ctrl.wrQLenPdf::8                    1                       # What write queue length does an incoming req see (Count)
system.loc_mem_ctrl.wrQLenPdf::9                    1                       # What write queue length does an incoming req see (Count)
system.loc_mem_ctrl.wrQLenPdf::10                   1                       # What write queue length does an incoming req see (Count)
system.loc_mem_ctrl.wrQLenPdf::11                   1                       # What write queue length does an incoming req see (Count)
system.loc_mem_ctrl.wrQLenPdf::12                   1                       # What write queue length does an incoming req see (Count)
system.loc_mem_ctrl.wrQLenPdf::13                   1                       # What write queue length does an incoming req see (Count)
system.loc_mem_ctrl.wrQLenPdf::14                   1                       # What write queue length does an incoming req see (Count)
system.loc_mem_ctrl.wrQLenPdf::15                   1                       # What write queue length does an incoming req see (Count)
system.loc_mem_ctrl.wrQLenPdf::16                   1                       # What write queue length does an incoming req see (Count)
system.loc_mem_ctrl.wrQLenPdf::17                   1                       # What write queue length does an incoming req see (Count)
system.loc_mem_ctrl.wrQLenPdf::18                   1                       # What write queue length does an incoming req see (Count)
system.loc_mem_ctrl.wrQLenPdf::19                   1                       # What write queue length does an incoming req see (Count)
system.loc_mem_ctrl.wrQLenPdf::20                   1                       # What write queue length does an incoming req see (Count)
system.loc_mem_ctrl.wrQLenPdf::21                   1                       # What write queue length does an incoming req see (Count)
system.loc_mem_ctrl.wrQLenPdf::22                   1                       # What write queue length does an incoming req see (Count)
system.loc_mem_ctrl.wrQLenPdf::23                   1                       # What write queue length does an incoming req see (Count)
system.loc_mem_ctrl.wrQLenPdf::24                   1                       # What write queue length does an incoming req see (Count)
system.loc_mem_ctrl.wrQLenPdf::25                   1                       # What write queue length does an incoming req see (Count)
system.loc_mem_ctrl.wrQLenPdf::26                   1                       # What write queue length does an incoming req see (Count)
system.loc_mem_ctrl.wrQLenPdf::27                   1                       # What write queue length does an incoming req see (Count)
system.loc_mem_ctrl.wrQLenPdf::28                   1                       # What write queue length does an incoming req see (Count)
system.loc_mem_ctrl.wrQLenPdf::29                   1                       # What write queue length does an incoming req see (Count)
system.loc_mem_ctrl.wrQLenPdf::30                   1                       # What write queue length does an incoming req see (Count)
system.loc_mem_ctrl.wrQLenPdf::31                   1                       # What write queue length does an incoming req see (Count)
system.loc_mem_ctrl.wrQLenPdf::32                   1                       # What write queue length does an incoming req see (Count)
system.loc_mem_ctrl.wrQLenPdf::33                   1                       # What write queue length does an incoming req see (Count)
system.loc_mem_ctrl.wrQLenPdf::34                   1                       # What write queue length does an incoming req see (Count)
system.loc_mem_ctrl.wrQLenPdf::35                   1                       # What write queue length does an incoming req see (Count)
system.loc_mem_ctrl.wrQLenPdf::36                   1                       # What write queue length does an incoming req see (Count)
system.loc_mem_ctrl.wrQLenPdf::37                   1                       # What write queue length does an incoming req see (Count)
system.loc_mem_ctrl.wrQLenPdf::38                   1                       # What write queue length does an incoming req see (Count)
system.loc_mem_ctrl.wrQLenPdf::39                   1                       # What write queue length does an incoming req see (Count)
system.loc_mem_ctrl.wrQLenPdf::40                   1                       # What write queue length does an incoming req see (Count)
system.loc_mem_ctrl.wrQLenPdf::41                   1                       # What write queue length does an incoming req see (Count)
system.loc_mem_ctrl.wrQLenPdf::42                   1                       # What write queue length does an incoming req see (Count)
system.loc_mem_ctrl.wrQLenPdf::43                   1                       # What write queue length does an incoming req see (Count)
system.loc_mem_ctrl.wrQLenPdf::44                   1                       # What write queue length does an incoming req see (Count)
system.loc_mem_ctrl.wrQLenPdf::45                   1                       # What write queue length does an incoming req see (Count)
system.loc_mem_ctrl.wrQLenPdf::46                   1                       # What write queue length does an incoming req see (Count)
system.loc_mem_ctrl.wrQLenPdf::47                3931                       # What write queue length does an incoming req see (Count)
system.loc_mem_ctrl.wrQLenPdf::48                3931                       # What write queue length does an incoming req see (Count)
system.loc_mem_ctrl.wrQLenPdf::49                3931                       # What write queue length does an incoming req see (Count)
system.loc_mem_ctrl.wrQLenPdf::50                3931                       # What write queue length does an incoming req see (Count)
system.loc_mem_ctrl.wrQLenPdf::51                3931                       # What write queue length does an incoming req see (Count)
system.loc_mem_ctrl.wrQLenPdf::52                3931                       # What write queue length does an incoming req see (Count)
system.loc_mem_ctrl.wrQLenPdf::53                3931                       # What write queue length does an incoming req see (Count)
system.loc_mem_ctrl.wrQLenPdf::54                3931                       # What write queue length does an incoming req see (Count)
system.loc_mem_ctrl.wrQLenPdf::55                3931                       # What write queue length does an incoming req see (Count)
system.loc_mem_ctrl.wrQLenPdf::56                3931                       # What write queue length does an incoming req see (Count)
system.loc_mem_ctrl.wrQLenPdf::57                3931                       # What write queue length does an incoming req see (Count)
system.loc_mem_ctrl.wrQLenPdf::58                3931                       # What write queue length does an incoming req see (Count)
system.loc_mem_ctrl.wrQLenPdf::59                3931                       # What write queue length does an incoming req see (Count)
system.loc_mem_ctrl.wrQLenPdf::60                3931                       # What write queue length does an incoming req see (Count)
system.loc_mem_ctrl.wrQLenPdf::61                3931                       # What write queue length does an incoming req see (Count)
system.loc_mem_ctrl.wrQLenPdf::62                3932                       # What write queue length does an incoming req see (Count)
system.loc_mem_ctrl.wrQLenPdf::63                3931                       # What write queue length does an incoming req see (Count)
system.loc_mem_ctrl.wrQLenPdf::64                3931                       # What write queue length does an incoming req see (Count)
system.loc_mem_ctrl.wrQLenPdf::65                3931                       # What write queue length does an incoming req see (Count)
system.loc_mem_ctrl.wrQLenPdf::66                3931                       # What write queue length does an incoming req see (Count)
system.loc_mem_ctrl.wrQLenPdf::67                3931                       # What write queue length does an incoming req see (Count)
system.loc_mem_ctrl.wrQLenPdf::68                3931                       # What write queue length does an incoming req see (Count)
system.loc_mem_ctrl.wrQLenPdf::69                3931                       # What write queue length does an incoming req see (Count)
system.loc_mem_ctrl.wrQLenPdf::70                3931                       # What write queue length does an incoming req see (Count)
system.loc_mem_ctrl.wrQLenPdf::71                3931                       # What write queue length does an incoming req see (Count)
system.loc_mem_ctrl.wrQLenPdf::72                3931                       # What write queue length does an incoming req see (Count)
system.loc_mem_ctrl.wrQLenPdf::73                3932                       # What write queue length does an incoming req see (Count)
system.loc_mem_ctrl.wrQLenPdf::74                3931                       # What write queue length does an incoming req see (Count)
system.loc_mem_ctrl.wrQLenPdf::75                3931                       # What write queue length does an incoming req see (Count)
system.loc_mem_ctrl.wrQLenPdf::76                3932                       # What write queue length does an incoming req see (Count)
system.loc_mem_ctrl.wrQLenPdf::77                3931                       # What write queue length does an incoming req see (Count)
system.loc_mem_ctrl.wrQLenPdf::78                3933                       # What write queue length does an incoming req see (Count)
system.loc_mem_ctrl.wrQLenPdf::79                3931                       # What write queue length does an incoming req see (Count)
system.loc_mem_ctrl.wrQLenPdf::80                3932                       # What write queue length does an incoming req see (Count)
system.loc_mem_ctrl.wrQLenPdf::81                3931                       # What write queue length does an incoming req see (Count)
system.loc_mem_ctrl.wrQLenPdf::82                3931                       # What write queue length does an incoming req see (Count)
system.loc_mem_ctrl.wrQLenPdf::83                3933                       # What write queue length does an incoming req see (Count)
system.loc_mem_ctrl.wrQLenPdf::84                3932                       # What write queue length does an incoming req see (Count)
system.loc_mem_ctrl.wrQLenPdf::85                3934                       # What write queue length does an incoming req see (Count)
system.loc_mem_ctrl.wrQLenPdf::86                3932                       # What write queue length does an incoming req see (Count)
system.loc_mem_ctrl.wrQLenPdf::87                3932                       # What write queue length does an incoming req see (Count)
system.loc_mem_ctrl.wrQLenPdf::88                3933                       # What write queue length does an incoming req see (Count)
system.loc_mem_ctrl.wrQLenPdf::89                3932                       # What write queue length does an incoming req see (Count)
system.loc_mem_ctrl.wrQLenPdf::90                3932                       # What write queue length does an incoming req see (Count)
system.loc_mem_ctrl.wrQLenPdf::91                3933                       # What write queue length does an incoming req see (Count)
system.loc_mem_ctrl.wrQLenPdf::92                3932                       # What write queue length does an incoming req see (Count)
system.loc_mem_ctrl.wrQLenPdf::93                3933                       # What write queue length does an incoming req see (Count)
system.loc_mem_ctrl.wrQLenPdf::94                3934                       # What write queue length does an incoming req see (Count)
[...]
system.loc_mem_ctrl.dram.perBankWrBursts::17        41418                       # Per bank write bursts (Count)
system.loc_mem_ctrl.dram.perBankWrBursts::18        41478                       # Per bank write bursts (Count)
system.loc_mem_ctrl.dram.perBankWrBursts::19        41361                       # Per bank write bursts (Count)
system.loc_mem_ctrl.dram.perBankWrBursts::20        41017                       # Per bank write bursts (Count)
system.loc_mem_ctrl.dram.perBankWrBursts::21        41254                       # Per bank write bursts (Count)
system.loc_mem_ctrl.dram.perBankWrBursts::22        41579                       # Per bank write bursts (Count)
system.loc_mem_ctrl.dram.perBankWrBursts::23        41359                       # Per bank write bursts (Count)
system.loc_mem_ctrl.dram.perBankWrBursts::24        41349                       # Per bank write bursts (Count)
system.loc_mem_ctrl.dram.perBankWrBursts::25        41161                       # Per bank write bursts (Count)
system.loc_mem_ctrl.dram.perBankWrBursts::26        41335                       # Per bank write bursts (Count)
system.loc_mem_ctrl.dram.perBankWrBursts::27        41385                       # Per bank write bursts (Count)
system.loc_mem_ctrl.dram.perBankWrBursts::28        41545                       # Per bank write bursts (Count)
system.loc_mem_ctrl.dram.perBankWrBursts::29        41161                       # Per bank write bursts (Count)
system.loc_mem_ctrl.dram.perBankWrBursts::30        41411                       # Per bank write bursts (Count)
system.loc_mem_ctrl.dram.perBankWrBursts::31        41707                       # Per bank write bursts (Count)
system.loc_mem_ctrl.dram.totQLat         532909272855                       # Total ticks spent queuing (Tick)
system.loc_mem_ctrl.dram.totBusLat         4414156964                       # Total ticks spent in databus transfers (Tick)
system.loc_mem_ctrl.dram.totMemAccLat    556082272139                       # Total ticks spent from burst creation until serviced by the DRAM (Tick)
system.loc_mem_ctrl.dram.avgQLat            402263.38                       # Average queueing delay per DRAM burst ((Tick/Count))
system.loc_mem_ctrl.dram.avgBusLat            3332.00                       # Average bus latency per DRAM burst ((Tick/Count))
system.loc_mem_ctrl.dram.avgMemAccLat       419755.38                       # Average memory access latency per DRAM burst ((Tick/Count))
system.loc_mem_ctrl.dram.readRowHits              213                       # Number of row buffer hits during reads (Count)
system.loc_mem_ctrl.dram.writeRowHits             555                       # Number of row buffer hits during writes (Count)
system.loc_mem_ctrl.dram.readRowHitRate          0.02                       # Row buffer hit rate for reads (Ratio)
system.loc_mem_ctrl.dram.writeRowHitRate         0.04                       # Row buffer hit rate for writes (Ratio)
system.loc_mem_ctrl.dram.bytesPerActivate::samples      2648524                       # Bytes accessed per row activation (Byte)
system.loc_mem_ctrl.dram.bytesPerActivate::mean    64.018558                       # Bytes accessed per row activation (Byte)
system.loc_mem_ctrl.dram.bytesPerActivate::gmean    64.012865                       # Bytes accessed per row activation (Byte)
system.loc_mem_ctrl.dram.bytesPerActivate::stdev     1.089672                       # Bytes accessed per row activation (Byte)
system.loc_mem_ctrl.dram.bytesPerActivate::64-79      2647756     99.97%     99.97% # Bytes accessed per row activation (Byte)
system.loc_mem_ctrl.dram.bytesPerActivate::128-143          768      0.03%    100.00% # Bytes accessed per row activation (Byte)
system.loc_mem_ctrl.dram.bytesPerActivate::total      2648524                       # Bytes accessed per row activation (Byte)
system.loc_mem_ctrl.dram.bytesRead           84785728                       # Total bytes read (Byte)
system.loc_mem_ctrl.dram.bytesWritten        84769280                       # Total bytes written (Byte)
system.loc_mem_ctrl.dram.avgRdBW          8478.572800                       # Average DRAM read bandwidth in MiBytes/s ((Byte/Second))
system.loc_mem_ctrl.dram.avgWrBW          8476.928000                       # Average DRAM write bandwidth in MiBytes/s ((Byte/Second))
system.loc_mem_ctrl.dram.peakBW              19207.00                       # Theoretical peak bandwidth in MiByte/s ((Byte/Second))
system.loc_mem_ctrl.dram.busUtil                88.28                       # Data bus utilization in percentage (Ratio)
system.loc_mem_ctrl.dram.busUtilRead            44.14                       # Data bus utilization in percentage for reads (Ratio)
system.loc_mem_ctrl.dram.busUtilWrite           44.13                       # Data bus utilization in percentage for writes (Ratio)
system.loc_mem_ctrl.dram.pageHitRate             0.03                       # Row buffer hit rate, read and write combined (Ratio)
system.loc_mem_ctrl.dram.power_state.pwrStateResidencyTicks::UNDEFINED  10000000000                       # Cumulative time (in ticks) in various power states (Tick)
system.loc_mem_ctrl.dram.rank0.actEnergy 4132025168.543998                       # Energy for activate commands per rank (pJ) (Joule)
system.loc_mem_ctrl.dram.rank0.preEnergy 5493453755.193595                       # Energy for precharge commands per rank (pJ) (Joule)
system.loc_mem_ctrl.dram.rank0.readEnergy 2787505111.776003                       # Energy for read commands per rank (pJ) (Joule)
system.loc_mem_ctrl.dram.rank0.writeEnergy 2490281728.703998                       # Energy for write commands per rank (pJ) (Joule)
system.loc_mem_ctrl.dram.rank0.refreshEnergy 1778824873.324749                       # Energy for refresh commands per rank (pJ) (Joule)
system.loc_mem_ctrl.dram.rank0.actBackEnergy 8450927696.231993                       # Energy for active background per rank (pJ) (Joule)
system.loc_mem_ctrl.dram.rank0.preBackEnergy 34631869.708800                       # Energy for precharge background per rank (pJ) (Joule)
system.loc_mem_ctrl.dram.rank0.actPowerDownEnergy            0                       # Energy for active power-down per rank (pJ) (Joule)
system.loc_mem_ctrl.dram.rank0.prePowerDownEnergy            0                       # Energy for precharge power-down per rank (pJ) (Joule)
system.loc_mem_ctrl.dram.rank0.selfRefreshEnergy            0                       # Energy for self refresh per rank (pJ) (Joule)
system.loc_mem_ctrl.dram.rank0.totalEnergy 25167650203.483212                       # Total energy per rank (pJ) (Joule)
system.loc_mem_ctrl.dram.rank0.averagePower  2516.765020                       # Core power per rank (mW) (Watt)
system.loc_mem_ctrl.dram.rank0.totalIdleTime            0                       # Total Idle time Per DRAM Rank (Tick)
system.loc_mem_ctrl.dram.rank0.pwrStateTime::IDLE     17398904                       # Time in different power states (Tick)
system.loc_mem_ctrl.dram.rank0.pwrStateTime::REF    449400000                       # Time in different power states (Tick)
system.loc_mem_ctrl.dram.rank0.pwrStateTime::SREF            0                       # Time in different power states (Tick)
system.loc_mem_ctrl.dram.rank0.pwrStateTime::PRE_PDN            0                       # Time in different power states (Tick)
system.loc_mem_ctrl.dram.rank0.pwrStateTime::ACT   9533201096                       # Time in different power states (Tick)
system.loc_mem_ctrl.dram.rank0.pwrStateTime::ACT_PDN            0                       # Time in different power states (Tick)
system.loc_mem_ctrl.dram.rank1.actEnergy 4128079947.263997                       # Energy for activate commands per rank (pJ) (Joule)
system.loc_mem_ctrl.dram.rank1.preEnergy 5488163024.332799                       # Energy for precharge commands per rank (pJ) (Joule)
system.loc_mem_ctrl.dram.rank1.readEnergy 2784926639.577603                       # Energy for read commands per rank (pJ) (Joule)
system.loc_mem_ctrl.dram.rank1.writeEnergy 2487891325.247997                       # Energy for write commands per rank (pJ) (Joule)
system.loc_mem_ctrl.dram.rank1.refreshEnergy 1778824873.324749                       # Energy for refresh commands per rank (pJ) (Joule)
system.loc_mem_ctrl.dram.rank1.actBackEnergy 8451620550.979209                       # Energy for active background per rank (pJ) (Joule)
system.loc_mem_ctrl.dram.rank1.preBackEnergy 34099506.739200                       # Energy for precharge background per rank (pJ) (Joule)
system.loc_mem_ctrl.dram.rank1.actPowerDownEnergy            0                       # Energy for active power-down per rank (pJ) (Joule)
system.loc_mem_ctrl.dram.rank1.prePowerDownEnergy            0                       # Energy for precharge power-down per rank (pJ) (Joule)
system.loc_mem_ctrl.dram.rank1.selfRefreshEnergy            0                       # Energy for self refresh per rank (pJ) (Joule)
system.loc_mem_ctrl.dram.rank1.totalEnergy 25153605867.465641                       # Total energy per rank (pJ) (Joule)
system.loc_mem_ctrl.dram.rank1.averagePower  2515.360587                       # Core power per rank (mW) (Watt)
system.loc_mem_ctrl.dram.rank1.totalIdleTime            0                       # Total Idle time Per DRAM Rank (Tick)
system.loc_mem_ctrl.dram.rank1.pwrStateTime::IDLE     16305964                       # Time in different power states (Tick)
system.loc_mem_ctrl.dram.rank1.pwrStateTime::REF    449400000                       # Time in different power states (Tick)
system.loc_mem_ctrl.dram.rank1.pwrStateTime::SREF            0                       # Time in different power states (Tick)
system.loc_mem_ctrl.dram.rank1.pwrStateTime::PRE_PDN            0                       # Time in different power states (Tick)
system.loc_mem_ctrl.dram.rank1.pwrStateTime::ACT   9534294036                       # Time in different power states (Tick)
system.loc_mem_ctrl.dram.rank1.pwrStateTime::ACT_PDN            0                       # Time in different power states (Tick)
system.loc_mem_ctrl.power_state.pwrStateResidencyTicks::UNDEFINED  10000000000                       # Cumulative time (in ticks) in various power states (Tick)
system.mem_ctrl.bytesRead::generator         84785984                       # Number of bytes read from this memory (Byte)
system.mem_ctrl.bytesRead::total             84785984                       # Number of bytes read from this memory (Byte)
system.mem_ctrl.numReads::generator           1324781                       # Number of read requests responded to by this memory (Count)
system.mem_ctrl.numReads::total               1324781                       # Number of read requests responded to by this memory (Count)
system.mem_ctrl.bwRead::generator          8478598400                       # Total read bandwidth from this memory ((Byte/Second))
system.mem_ctrl.bwRead::total              8478598400                       # Total read bandwidth from this memory ((Byte/Second))
system.mem_ctrl.bwTotal::generator         8478598400                       # Total bandwidth to/from this memory ((Byte/Second))
system.mem_ctrl.bwTotal::total             8478598400                       # Total bandwidth to/from this memory ((Byte/Second))
system.mem_ctrl.readReqs                      1324891                       # Number of read requests accepted (Count)
system.mem_ctrl.writeReqs                           0                       # Number of write requests accepted (Count)
system.mem_ctrl.servicedByWrQ                       0                       # Number of controller read bursts serviced by the write queue (Count)
system.mem_ctrl.mergedWrBursts                      0                       # Number of controller write bursts merged with an existing one (Count)
system.mem_ctrl.numRdRetry                    1224047                       # Number of times read queue was full causing retry (Count)
system.mem_ctrl.numWrRetry                          0                       # Number of times write queue was full causing retry (Count)
system.mem_ctrl.readPktSize::0                      0                       # Read request sizes (log2) (Count)
system.mem_ctrl.readPktSize::1                      0                       # Read request sizes (log2) (Count)
system.mem_ctrl.readPktSize::2                      0                       # Read request sizes (log2) (Count)
system.mem_ctrl.readPktSize::3                      0                       # Read request sizes (log2) (Count)
system.mem_ctrl.readPktSize::4                      0                       # Read request sizes (log2) (Count)
system.mem_ctrl.readPktSize::5                      0                       # Read request sizes (log2) (Count)
system.mem_ctrl.readPktSize::6                1324891                       # Read request sizes (log2) (Count)
system.mem_ctrl.writePktSize::0                     0                       # Write request sizes (log2) (Count)
system.mem_ctrl.writePktSize::1                     0                       # Write request sizes (log2) (Count)
system.mem_ctrl.writePktSize::2                     0                       # Write request sizes (log2) (Count)
system.mem_ctrl.writePktSize::3                     0                       # Write request sizes (log2) (Count)
system.mem_ctrl.writePktSize::4                     0                       # Write request sizes (log2) (Count)
system.mem_ctrl.writePktSize::5                     0                       # Write request sizes (log2) (Count)
system.mem_ctrl.writePktSize::6                     0                       # Write request sizes (log2) (Count)
system.mem_ctrl.bytesReadWrQ                        0                       # Total number of bytes read from write queue (Byte)
system.mem_ctrl.bytesReadSys                 84793024                       # Total read bytes from the system interface side (Byte)
system.mem_ctrl.bytesWrittenSys                     0                       # Total written bytes from the system interface side (Byte)
system.mem_ctrl.avgRdBWSys               8479302400.00000000                       # Average system read bandwidth in Byte/s ((Byte/Second))
system.mem_ctrl.avgWrBWSys                 0.00000000                       # Average system write bandwidth in Byte/s ((Byte/Second))
system.mem_ctrl.totGap                   18389604316215767040                       # Total gap between requests (Tick)
system.mem_ctrl.avgGap                   13880088487442.19                       # Average gap between requests ((Tick/Count))
system.mem_ctrl.avgORBLen                    255.6386                       # Average ORB length ((Count/Tick))
system.mem_ctrl.avgLocRdQLenStrt               129.54                       # Average local read queue length ((Count/Tick))
system.mem_ctrl.avgLocWrQLenStrt                39.21                       # Average local write queue length ((Count/Tick))
system.mem_ctrl.avgFarRdQLenStrt                 1.93                       # Average far read queue length ((Count/Tick))
system.mem_ctrl.avgFarWrQLenStrt                 7.04                       # Average far write queue length ((Count/Tick))
system.mem_ctrl.avgLocRdQLenEnq                130.54                       # Average local read queue length when enqueuing ((Count/Tick))
system.mem_ctrl.avgLocWrQLenEnq                127.84                       # Average local write queue length when enqueuing ((Count/Tick))
system.mem_ctrl.avgFarRdQLenEnq                  4.18                       # Average far read queue length when enqueuing ((Count/Tick))
system.mem_ctrl.avgFarWrQLenEnq                 56.08                       # Average far write queue length when enqueuing ((Count/Tick))
system.mem_ctrl.numWrBacks                    1324781                       # Total number of write backs from DRAM cache to main memory (Unspecified)
system.mem_ctrl.totNumConf                        349                       # Total number of packets conflicted on DRAM cache (Unspecified)
system.mem_ctrl.totNumORBFull                 1222831                       # Total number of packets ORB full (Unspecified)
system.mem_ctrl.totNumCRBFull                       0                       # Total number of packets conflicted yet couldn't enter confBuffer (Unspecified)
system.mem_ctrl.maxNumConf                          2                       # Maximum number of packets conflicted on DRAM cache (Unspecified)
system.mem_ctrl.sentLocRdPort                 1324845                       # stat (Unspecified)
system.mem_ctrl.sentLocWrPort                 1324649                       # stat (Unspecified)
system.mem_ctrl.failedLocRdPort               2681492                       # stat (Unspecified)
system.mem_ctrl.failedLocWrPort               2497350                       # stat (Unspecified)
system.mem_ctrl.recvdRdPort                         0                       # stat (Unspecified)
system.mem_ctrl.sentFarRdPort                 1324781                       # stat (Unspecified)
system.mem_ctrl.sentFarWrPort                 1324690                       # stat (Unspecified)
system.mem_ctrl.failedFarRdPort                337546                       # stat (Unspecified)
system.mem_ctrl.failedFarWrPort                625697                       # stat (Unspecified)
system.mem_ctrl.totPktsServiceTime         2546301121                       # stat (Unspecified)
system.mem_ctrl.totPktsORBTime             2545974834                       # stat (Unspecified)
system.mem_ctrl.totTimeFarRdtoSend           21143027                       # stat (Unspecified)
system.mem_ctrl.totTimeFarRdtoRecv          195263624                       # stat (Unspecified)
system.mem_ctrl.totTimeFarWrtoSend                  0                       # stat (Unspecified)
system.mem_ctrl.totTimeInLocRead           1534274320                       # stat (Unspecified)
system.mem_ctrl.totTimeInLocWrite           793990365                       # stat (Unspecified)
system.mem_ctrl.totTimeInFarRead            216540511                       # stat (Unspecified)
system.mem_ctrl.numTotHits                          0                       # stat (Unspecified)
system.mem_ctrl.numTotMisses                  1324891                       # stat (Unspecified)
system.mem_ctrl.numColdMisses                  751900                       # stat (Unspecified)
system.mem_ctrl.numHotMisses                   572991                       # stat (Unspecified)
system.mem_ctrl.numRdMissClean                1324891                       # stat (Unspecified)
system.mem_ctrl.numRdMissDirty                      0                       # stat (Unspecified)
system.mem_ctrl.numRdHit                            0                       # stat (Unspecified)
system.mem_ctrl.numWrMissClean                      0                       # stat (Unspecified)
system.mem_ctrl.numWrMissDirty                      0                       # stat (Unspecified)
system.mem_ctrl.numWrHit                            0                       # stat (Unspecified)
system.mem_ctrl.numRdHitDirty                       0                       # stat (Unspecified)
system.mem_ctrl.numRdHitClean                       0                       # stat (Unspecified)
system.mem_ctrl.numWrHitDirty                       0                       # stat (Unspecified)
system.mem_ctrl.numWrHitClean                       0                       # stat (Unspecified)
system.mem_ctrl.power_state.pwrStateResidencyTicks::UNDEFINED  10000000000                       # Cumulative time (in ticks) in various power states (Tick)
system.workload.inst.arm                            0                       # number of arm instructions executed (Count)
system.workload.inst.quiesce                        0                       # number of quiesce instructions executed (Count)

---------- End Simulation Statistics   ----------
