
---------- Begin Simulation Statistics ----------
simSeconds                                          5                       # Number of seconds simulated (Second)
simTicks                                 5000000000000                       # Number of ticks simulated (Tick)
finalTick                                161880572984500                       # Number of ticks from beginning of simulation (restored from checkpoints and never reset) (Tick)
simFreq                                  1000000000000                       # The number of ticks per simulated second ((Tick/Second))
hostSeconds                                  33756.55                       # Real time elapsed on the host (Second)
hostTickRate                                148119399                       # The number of ticks simulated per host second (ticks/s) ((Tick/Second))
hostMemory                                    9557808                       # Number of bytes of host memory used (Byte)
simInsts                                  50581753897                       # Number of instructions simulated (Count)
simOps                                    59195637157                       # Number of ops (including micro ops) simulated (Count)
hostInstRate                                  1498428                       # Simulator instruction rate (inst/s) ((Count/Second))
hostOpRate                                    1753604                       # Simulator op (including micro ops) rate (op/s) ((Count/Second))
system.atomicCpu0.numCycles                         0                       # Number of cpu cycles simulated (Cycle)
system.atomicCpu0.numWorkItemsStarted               0                       # Number of work items this cpu started (Count)
system.atomicCpu0.numWorkItemsCompleted             0                       # Number of work items this cpu completed (Count)
system.atomicCpu0.exec_context.thread_0.numInsts            0                       # Number of instructions committed (Count)
system.atomicCpu0.exec_context.thread_0.numOps            0                       # Number of ops (including micro ops) committed (Count)
system.atomicCpu0.exec_context.thread_0.numIntAluAccesses            0                       # Number of integer alu accesses (Count)
system.atomicCpu0.exec_context.thread_0.numFpAluAccesses            0                       # Number of float alu accesses (Count)
system.atomicCpu0.exec_context.thread_0.numVecAluAccesses            0                       # Number of vector alu accesses (Count)
system.atomicCpu0.exec_context.thread_0.numCallsReturns            0                       # Number of times a function call or return occured (Count)
system.atomicCpu0.exec_context.thread_0.numCondCtrlInsts            0                       # Number of instructions that are conditional controls (Count)
system.atomicCpu0.exec_context.thread_0.numIntInsts            0                       # Number of integer instructions (Count)
system.atomicCpu0.exec_context.thread_0.numFpInsts            0                       # Number of float instructions (Count)
system.atomicCpu0.exec_context.thread_0.numVecInsts            0                       # Number of vector instructions (Count)
system.atomicCpu0.exec_context.thread_0.numIntRegReads            0                       # Number of times the integer registers were read (Count)
system.atomicCpu0.exec_context.thread_0.numIntRegWrites            0                       # Number of times the integer registers were written (Count)
system.atomicCpu0.exec_context.thread_0.numFpRegReads            0                       # Number of times the floating registers were read (Count)
system.atomicCpu0.exec_context.thread_0.numFpRegWrites            0                       # Number of times the floating registers were written (Count)
system.atomicCpu0.exec_context.thread_0.numVecRegReads            0                       # Number of times the vector registers were read (Count)
system.atomicCpu0.exec_context.thread_0.numVecRegWrites            0                       # Number of times the vector registers were written (Count)
system.atomicCpu0.exec_context.thread_0.numVecPredRegReads            0                       # Number of times the predicate registers were read (Count)
system.atomicCpu0.exec_context.thread_0.numVecPredRegWrites            0                       # Number of times the predicate registers were written (Count)
system.atomicCpu0.exec_context.thread_0.numMiscRegReads            0                       # Number of times the Misc registers were read (Count)
system.atomicCpu0.exec_context.thread_0.numMiscRegWrites            0                       # Number of times the Misc registers were written (Count)
system.atomicCpu0.exec_context.thread_0.numMemRefs            0                       # Number of memory refs (Count)
system.atomicCpu0.exec_context.thread_0.numLoadInsts            0                       # Number of load instructions (Count)
system.atomicCpu0.exec_context.thread_0.numStoreInsts            0                       # Number of store instructions (Count)
system.atomicCpu0.exec_context.thread_0.numIdleCycles            0                       # Number of idle cycles (Cycle)
system.atomicCpu0.exec_context.thread_0.numBusyCycles            0                       # Number of busy cycles (Cycle)
system.atomicCpu0.exec_context.thread_0.notIdleFraction            0                       # Percentage of non-idle cycles (Ratio)
system.atomicCpu0.exec_context.thread_0.idleFraction            1                       # Percentage of idle cycles (Ratio)
system.atomicCpu0.exec_context.thread_0.statExecutedInstType::No_OpClass            0                       # Class of executed instruction. (Count)
system.atomicCpu0.exec_context.thread_0.statExecutedInstType::IntAlu            0                       # Class of executed instruction. (Count)
system.atomicCpu0.exec_context.thread_0.statExecutedInstType::IntMult            0                       # Class of executed instruction. (Count)
system.atomicCpu0.exec_context.thread_0.statExecutedInstType::IntDiv            0                       # Class of executed instruction. (Count)
system.atomicCpu0.exec_context.thread_0.statExecutedInstType::FloatAdd            0                       # Class of executed instruction. (Count)
system.atomicCpu0.exec_context.thread_0.statExecutedInstType::FloatCmp            0                       # Class of executed instruction. (Count)
system.atomicCpu0.exec_context.thread_0.statExecutedInstType::FloatCvt            0                       # Class of executed instruction. (Count)
system.atomicCpu0.exec_context.thread_0.statExecutedInstType::FloatMult            0                       # Class of executed instruction. (Count)
system.atomicCpu0.exec_context.thread_0.statExecutedInstType::FloatMultAcc            0                       # Class of executed instruction. (Count)
system.atomicCpu0.exec_context.thread_0.statExecutedInstType::FloatDiv            0                       # Class of executed instruction. (Count)
system.atomicCpu0.exec_context.thread_0.statExecutedInstType::FloatMisc            0                       # Class of executed instruction. (Count)
system.atomicCpu0.exec_context.thread_0.statExecutedInstType::FloatSqrt            0                       # Class of executed instruction. (Count)
system.atomicCpu0.exec_context.thread_0.statExecutedInstType::SimdAdd            0                       # Class of executed instruction. (Count)
system.atomicCpu0.exec_context.thread_0.statExecutedInstType::SimdAddAcc            0                       # Class of executed instruction. (Count)
system.atomicCpu0.exec_context.thread_0.statExecutedInstType::SimdAlu            0                       # Class of executed instruction. (Count)
system.atomicCpu0.exec_context.thread_0.statExecutedInstType::SimdCmp            0                       # Class of executed instruction. (Count)
system.atomicCpu0.exec_context.thread_0.statExecutedInstType::SimdCvt            0                       # Class of executed instruction. (Count)
system.atomicCpu0.exec_context.thread_0.statExecutedInstType::SimdMisc            0                       # Class of executed instruction. (Count)
system.atomicCpu0.exec_context.thread_0.statExecutedInstType::SimdMult            0                       # Class of executed instruction. (Count)
system.atomicCpu0.exec_context.thread_0.statExecutedInstType::SimdMultAcc            0                       # Class of executed instruction. (Count)
system.atomicCpu0.exec_context.thread_0.statExecutedInstType::SimdShift            0                       # Class of executed instruction. (Count)
system.atomicCpu0.exec_context.thread_0.statExecutedInstType::SimdShiftAcc            0                       # Class of executed instruction. (Count)
system.atomicCpu0.exec_context.thread_0.statExecutedInstType::SimdDiv            0                       # Class of executed instruction. (Count)
system.atomicCpu0.exec_context.thread_0.statExecutedInstType::SimdSqrt            0                       # Class of executed instruction. (Count)
system.atomicCpu0.exec_context.thread_0.statExecutedInstType::SimdFloatAdd            0                       # Class of executed instruction. (Count)
system.atomicCpu0.exec_context.thread_0.statExecutedInstType::SimdFloatAlu            0                       # Class of executed instruction. (Count)
system.atomicCpu0.exec_context.thread_0.statExecutedInstType::SimdFloatCmp            0                       # Class of executed instruction. (Count)
system.atomicCpu0.exec_context.thread_0.statExecutedInstType::SimdFloatCvt            0                       # Class of executed instruction. (Count)
system.atomicCpu0.exec_context.thread_0.statExecutedInstType::SimdFloatDiv            0                       # Class of executed instruction. (Count)
system.atomicCpu0.exec_context.thread_0.statExecutedInstType::SimdFloatMisc            0                       # Class of executed instruction. (Count)
system.atomicCpu0.exec_context.thread_0.statExecutedInstType::SimdFloatMult            0                       # Class of executed instruction. (Count)
system.atomicCpu0.exec_context.thread_0.statExecutedInstType::SimdFloatMultAcc            0                       # Class of executed instruction. (Count)
system.atomicCpu0.exec_context.thread_0.statExecutedInstType::SimdFloatSqrt            0                       # Class of executed instruction. (Count)
system.atomicCpu0.exec_context.thread_0.statExecutedInstType::SimdReduceAdd            0                       # Class of executed instruction. (Count)
system.atomicCpu0.exec_context.thread_0.statExecutedInstType::SimdReduceAlu            0                       # Class of executed instruction. (Count)
system.atomicCpu0.exec_context.thread_0.statExecutedInstType::SimdReduceCmp            0                       # Class of executed instruction. (Count)
system.atomicCpu0.exec_context.thread_0.statExecutedInstType::SimdFloatReduceAdd            0                       # Class of executed instruction. (Count)
system.atomicCpu0.exec_context.thread_0.statExecutedInstType::SimdFloatReduceCmp            0                       # Class of executed instruction. (Count)
system.atomicCpu0.exec_context.thread_0.statExecutedInstType::SimdAes            0                       # Class of executed instruction. (Count)
system.atomicCpu0.exec_context.thread_0.statExecutedInstType::SimdAesMix            0                       # Class of executed instruction. (Count)
system.atomicCpu0.exec_context.thread_0.statExecutedInstType::SimdSha1Hash            0                       # Class of executed instruction. (Count)
system.atomicCpu0.exec_context.thread_0.statExecutedInstType::SimdSha1Hash2            0                       # Class of executed instruction. (Count)
system.atomicCpu0.exec_context.thread_0.statExecutedInstType::SimdSha256Hash            0                       # Class of executed instruction. (Count)
system.atomicCpu0.exec_context.thread_0.statExecutedInstType::SimdSha256Hash2            0                       # Class of executed instruction. (Count)
system.atomicCpu0.exec_context.thread_0.statExecutedInstType::SimdShaSigma2            0                       # Class of executed instruction. (Count)
system.atomicCpu0.exec_context.thread_0.statExecutedInstType::SimdShaSigma3            0                       # Class of executed instruction. (Count)
system.atomicCpu0.exec_context.thread_0.statExecutedInstType::SimdPredAlu            0                       # Class of executed instruction. (Count)
system.atomicCpu0.exec_context.thread_0.statExecutedInstType::MemRead            0                       # Class of executed instruction. (Count)
system.atomicCpu0.exec_context.thread_0.statExecutedInstType::MemWrite            0                       # Class of executed instruction. (Count)
system.atomicCpu0.exec_context.thread_0.statExecutedInstType::FloatMemRead            0                       # Class of executed instruction. (Count)
system.atomicCpu0.exec_context.thread_0.statExecutedInstType::FloatMemWrite            0                       # Class of executed instruction. (Count)
system.atomicCpu0.exec_context.thread_0.statExecutedInstType::IprAccess            0                       # Class of executed instruction. (Count)
system.atomicCpu0.exec_context.thread_0.statExecutedInstType::InstPrefetch            0                       # Class of executed instruction. (Count)
system.atomicCpu0.exec_context.thread_0.statExecutedInstType::total            0                       # Class of executed instruction. (Count)
system.atomicCpu0.mmu.dtb.rdAccesses                0                       # TLB accesses on read requests (Count)
system.atomicCpu0.mmu.dtb.wrAccesses                0                       # TLB accesses on write requests (Count)
system.atomicCpu0.mmu.dtb.rdMisses                  0                       # TLB misses on read requests (Count)
system.atomicCpu0.mmu.dtb.wrMisses                  0                       # TLB misses on write requests (Count)
system.atomicCpu0.mmu.dtb.walker.power_state.pwrStateResidencyTicks::UNDEFINED 161880572984500                       # Cumulative time (in ticks) in various power states (Tick)
system.atomicCpu0.mmu.itb.rdAccesses                0                       # TLB accesses on read requests (Count)
system.atomicCpu0.mmu.itb.wrAccesses                0                       # TLB accesses on write requests (Count)
system.atomicCpu0.mmu.itb.rdMisses                  0                       # TLB misses on read requests (Count)
system.atomicCpu0.mmu.itb.wrMisses                  0                       # TLB misses on write requests (Count)
system.atomicCpu0.mmu.itb.walker.power_state.pwrStateResidencyTicks::UNDEFINED 161880572984500                       # Cumulative time (in ticks) in various power states (Tick)
system.atomicCpu0.power_state.pwrStateResidencyTicks::OFF 161880572984500                       # Cumulative time (in ticks) in various power states (Tick)
system.atomicCpu0.thread_0.numInsts                 0                       # Number of Instructions committed (Count)
system.atomicCpu0.thread_0.numOps                   0                       # Number of Ops committed (Count)
system.atomicCpu0.thread_0.numMemRefs               0                       # Number of Memory References (Count)
system.atomicCpu1.numCycles                         0                       # Number of cpu cycles simulated (Cycle)
system.atomicCpu1.numWorkItemsStarted               0                       # Number of work items this cpu started (Count)
system.atomicCpu1.numWorkItemsCompleted             0                       # Number of work items this cpu completed (Count)
system.atomicCpu1.exec_context.thread_0.numInsts            0                       # Number of instructions committed (Count)
system.atomicCpu1.exec_context.thread_0.numOps            0                       # Number of ops (including micro ops) committed (Count)
system.atomicCpu1.exec_context.thread_0.numIntAluAccesses            0                       # Number of integer alu accesses (Count)
system.atomicCpu1.exec_context.thread_0.numFpAluAccesses            0                       # Number of float alu accesses (Count)
system.atomicCpu1.exec_context.thread_0.numVecAluAccesses            0                       # Number of vector alu accesses (Count)
system.atomicCpu1.exec_context.thread_0.numCallsReturns            0                       # Number of times a function call or return occured (Count)
system.atomicCpu1.exec_context.thread_0.numCondCtrlInsts            0                       # Number of instructions that are conditional controls (Count)
system.atomicCpu1.exec_context.thread_0.numIntInsts            0                       # Number of integer instructions (Count)
system.atomicCpu1.exec_context.thread_0.numFpInsts            0                       # Number of float instructions (Count)
system.atomicCpu1.exec_context.thread_0.numVecInsts            0                       # Number of vector instructions (Count)
system.atomicCpu1.exec_context.thread_0.numIntRegReads            0                       # Number of times the integer registers were read (Count)
system.atomicCpu1.exec_context.thread_0.numIntRegWrites            0                       # Number of times the integer registers were written (Count)
system.atomicCpu1.exec_context.thread_0.numFpRegReads            0                       # Number of times the floating registers were read (Count)
system.atomicCpu1.exec_context.thread_0.numFpRegWrites            0                       # Number of times the floating registers were written (Count)
system.atomicCpu1.exec_context.thread_0.numVecRegReads            0                       # Number of times the vector registers were read (Count)
system.atomicCpu1.exec_context.thread_0.numVecRegWrites            0                       # Number of times the vector registers were written (Count)
system.atomicCpu1.exec_context.thread_0.numVecPredRegReads            0                       # Number of times the predicate registers were read (Count)
system.atomicCpu1.exec_context.thread_0.numVecPredRegWrites            0                       # Number of times the predicate registers were written (Count)
system.atomicCpu1.exec_context.thread_0.numMiscRegReads            0                       # Number of times the Misc registers were read (Count)
system.atomicCpu1.exec_context.thread_0.numMiscRegWrites            0                       # Number of times the Misc registers were written (Count)
system.atomicCpu1.exec_context.thread_0.numMemRefs            0                       # Number of memory refs (Count)
system.atomicCpu1.exec_context.thread_0.numLoadInsts            0                       # Number of load instructions (Count)
system.atomicCpu1.exec_context.thread_0.numStoreInsts            0                       # Number of store instructions (Count)
system.atomicCpu1.exec_context.thread_0.numIdleCycles            0                       # Number of idle cycles (Cycle)
system.atomicCpu1.exec_context.thread_0.numBusyCycles            0                       # Number of busy cycles (Cycle)
system.atomicCpu1.exec_context.thread_0.notIdleFraction            0                       # Percentage of non-idle cycles (Ratio)
system.atomicCpu1.exec_context.thread_0.idleFraction            1                       # Percentage of idle cycles (Ratio)
system.atomicCpu1.exec_context.thread_0.statExecutedInstType::No_OpClass            0                       # Class of executed instruction. (Count)
system.atomicCpu1.exec_context.thread_0.statExecutedInstType::IntAlu            0                       # Class of executed instruction. (Count)
system.atomicCpu1.exec_context.thread_0.statExecutedInstType::IntMult            0                       # Class of executed instruction. (Count)
system.atomicCpu1.exec_context.thread_0.statExecutedInstType::IntDiv            0                       # Class of executed instruction. (Count)
system.atomicCpu1.exec_context.thread_0.statExecutedInstType::FloatAdd            0                       # Class of executed instruction. (Count)
system.atomicCpu1.exec_context.thread_0.statExecutedInstType::FloatCmp            0                       # Class of executed instruction. (Count)
system.atomicCpu1.exec_context.thread_0.statExecutedInstType::FloatCvt            0                       # Class of executed instruction. (Count)
system.atomicCpu1.exec_context.thread_0.statExecutedInstType::FloatMult            0                       # Class of executed instruction. (Count)
system.atomicCpu1.exec_context.thread_0.statExecutedInstType::FloatMultAcc            0                       # Class of executed instruction. (Count)
system.atomicCpu1.exec_context.thread_0.statExecutedInstType::FloatDiv            0                       # Class of executed instruction. (Count)
system.atomicCpu1.exec_context.thread_0.statExecutedInstType::FloatMisc            0                       # Class of executed instruction. (Count)
system.atomicCpu1.exec_context.thread_0.statExecutedInstType::FloatSqrt            0                       # Class of executed instruction. (Count)
system.atomicCpu1.exec_context.thread_0.statExecutedInstType::SimdAdd            0                       # Class of executed instruction. (Count)
system.atomicCpu1.exec_context.thread_0.statExecutedInstType::SimdAddAcc            0                       # Class of executed instruction. (Count)
system.atomicCpu1.exec_context.thread_0.statExecutedInstType::SimdAlu            0                       # Class of executed instruction. (Count)
system.atomicCpu1.exec_context.thread_0.statExecutedInstType::SimdCmp            0                       # Class of executed instruction. (Count)
system.atomicCpu1.exec_context.thread_0.statExecutedInstType::SimdCvt            0                       # Class of executed instruction. (Count)
system.atomicCpu1.exec_context.thread_0.statExecutedInstType::SimdMisc            0                       # Class of executed instruction. (Count)
system.atomicCpu1.exec_context.thread_0.statExecutedInstType::SimdMult            0                       # Class of executed instruction. (Count)
system.atomicCpu1.exec_context.thread_0.statExecutedInstType::SimdMultAcc            0                       # Class of executed instruction. (Count)
system.atomicCpu1.exec_context.thread_0.statExecutedInstType::SimdShift            0                       # Class of executed instruction. (Count)
system.atomicCpu1.exec_context.thread_0.statExecutedInstType::SimdShiftAcc            0                       # Class of executed instruction. (Count)
system.atomicCpu1.exec_context.thread_0.statExecutedInstType::SimdDiv            0                       # Class of executed instruction. (Count)
system.atomicCpu1.exec_context.thread_0.statExecutedInstType::SimdSqrt            0                       # Class of executed instruction. (Count)
system.atomicCpu1.exec_context.thread_0.statExecutedInstType::SimdFloatAdd            0                       # Class of executed instruction. (Count)
system.atomicCpu1.exec_context.thread_0.statExecutedInstType::SimdFloatAlu            0                       # Class of executed instruction. (Count)
system.atomicCpu1.exec_context.thread_0.statExecutedInstType::SimdFloatCmp            0                       # Class of executed instruction. (Count)
system.atomicCpu1.exec_context.thread_0.statExecutedInstType::SimdFloatCvt            0                       # Class of executed instruction. (Count)
system.atomicCpu1.exec_context.thread_0.statExecutedInstType::SimdFloatDiv            0                       # Class of executed instruction. (Count)
system.atomicCpu1.exec_context.thread_0.statExecutedInstType::SimdFloatMisc            0                       # Class of executed instruction. (Count)
system.atomicCpu1.exec_context.thread_0.statExecutedInstType::SimdFloatMult            0                       # Class of executed instruction. (Count)
system.atomicCpu1.exec_context.thread_0.statExecutedInstType::SimdFloatMultAcc            0                       # Class of executed instruction. (Count)
system.atomicCpu1.exec_context.thread_0.statExecutedInstType::SimdFloatSqrt            0                       # Class of executed instruction. (Count)
system.atomicCpu1.exec_context.thread_0.statExecutedInstType::SimdReduceAdd            0                       # Class of executed instruction. (Count)
system.atomicCpu1.exec_context.thread_0.statExecutedInstType::SimdReduceAlu            0                       # Class of executed instruction. (Count)
system.atomicCpu1.exec_context.thread_0.statExecutedInstType::SimdReduceCmp            0                       # Class of executed instruction. (Count)
system.atomicCpu1.exec_context.thread_0.statExecutedInstType::SimdFloatReduceAdd            0                       # Class of executed instruction. (Count)
system.atomicCpu1.exec_context.thread_0.statExecutedInstType::SimdFloatReduceCmp            0                       # Class of executed instruction. (Count)
system.atomicCpu1.exec_context.thread_0.statExecutedInstType::SimdAes            0                       # Class of executed instruction. (Count)
system.atomicCpu1.exec_context.thread_0.statExecutedInstType::SimdAesMix            0                       # Class of executed instruction. (Count)
system.atomicCpu1.exec_context.thread_0.statExecutedInstType::SimdSha1Hash            0                       # Class of executed instruction. (Count)
system.atomicCpu1.exec_context.thread_0.statExecutedInstType::SimdSha1Hash2            0                       # Class of executed instruction. (Count)
system.atomicCpu1.exec_context.thread_0.statExecutedInstType::SimdSha256Hash            0                       # Class of executed instruction. (Count)
system.atomicCpu1.exec_context.thread_0.statExecutedInstType::SimdSha256Hash2            0                       # Class of executed instruction. (Count)
system.atomicCpu1.exec_context.thread_0.statExecutedInstType::SimdShaSigma2            0                       # Class of executed instruction. (Count)
system.atomicCpu1.exec_context.thread_0.statExecutedInstType::SimdShaSigma3            0                       # Class of executed instruction. (Count)
system.atomicCpu1.exec_context.thread_0.statExecutedInstType::SimdPredAlu            0                       # Class of executed instruction. (Count)
system.atomicCpu1.exec_context.thread_0.statExecutedInstType::MemRead            0                       # Class of executed instruction. (Count)
system.atomicCpu1.exec_context.thread_0.statExecutedInstType::MemWrite            0                       # Class of executed instruction. (Count)
system.atomicCpu1.exec_context.thread_0.statExecutedInstType::FloatMemRead            0                       # Class of executed instruction. (Count)
system.atomicCpu1.exec_context.thread_0.statExecutedInstType::FloatMemWrite            0                       # Class of executed instruction. (Count)
system.atomicCpu1.exec_context.thread_0.statExecutedInstType::IprAccess            0                       # Class of executed instruction. (Count)
system.atomicCpu1.exec_context.thread_0.statExecutedInstType::InstPrefetch            0                       # Class of executed instruction. (Count)
system.atomicCpu1.exec_context.thread_0.statExecutedInstType::total            0                       # Class of executed instruction. (Count)
system.atomicCpu1.mmu.dtb.rdAccesses                0                       # TLB accesses on read requests (Count)
system.atomicCpu1.mmu.dtb.wrAccesses                0                       # TLB accesses on write requests (Count)
system.atomicCpu1.mmu.dtb.rdMisses                  0                       # TLB misses on read requests (Count)
system.atomicCpu1.mmu.dtb.wrMisses                  0                       # TLB misses on write requests (Count)
system.atomicCpu1.mmu.dtb.walker.power_state.pwrStateResidencyTicks::UNDEFINED 161880572984500                       # Cumulative time (in ticks) in various power states (Tick)
system.atomicCpu1.mmu.itb.rdAccesses                0                       # TLB accesses on read requests (Count)
system.atomicCpu1.mmu.itb.wrAccesses                0                       # TLB accesses on write requests (Count)
system.atomicCpu1.mmu.itb.rdMisses                  0                       # TLB misses on read requests (Count)
system.atomicCpu1.mmu.itb.wrMisses                  0                       # TLB misses on write requests (Count)
system.atomicCpu1.mmu.itb.walker.power_state.pwrStateResidencyTicks::UNDEFINED 161880572984500                       # Cumulative time (in ticks) in various power states (Tick)
system.atomicCpu1.power_state.pwrStateResidencyTicks::OFF 161880572984500                       # Cumulative time (in ticks) in various power states (Tick)
system.atomicCpu1.thread_0.numInsts                 0                       # Number of Instructions committed (Count)
system.atomicCpu1.thread_0.numOps                   0                       # Number of Ops committed (Count)
system.atomicCpu1.thread_0.numMemRefs               0                       # Number of Memory References (Count)
system.caches.delayHistogram::bucket_size           64                       # delay histogram for all message (Unspecified)
system.caches.delayHistogram::max_bucket          639                       # delay histogram for all message (Unspecified)
system.caches.delayHistogram::samples       228274439                       # delay histogram for all message (Unspecified)
system.caches.delayHistogram::mean           0.287649                       # delay histogram for all message (Unspecified)
system.caches.delayHistogram::stdev          1.492753                       # delay histogram for all message (Unspecified)
system.caches.delayHistogram             |   228274425    100.00%    100.00% |           9      0.00%    100.00% |           1      0.00%    100.00% |           1      0.00%    100.00% |           0      0.00%    100.00% |           0      0.00%    100.00% |           0      0.00%    100.00% |           2      0.00%    100.00% |           0      0.00%    100.00% |           1      0.00%    100.00% # delay histogram for all message (Unspecified)
system.caches.delayHistogram::total         228274439                       # delay histogram for all message (Unspecified)
system.caches.m_outstandReqHistSeqr::bucket_size            1                       (Unspecified)
system.caches.m_outstandReqHistSeqr::max_bucket            9                       (Unspecified)
system.caches.m_outstandReqHistSeqr::samples  16318550869                       (Unspecified)
system.caches.m_outstandReqHistSeqr::mean     1.000016                       (Unspecified)
system.caches.m_outstandReqHistSeqr::gmean     1.000011                       (Unspecified)
system.caches.m_outstandReqHistSeqr::stdev     0.003968                       (Unspecified)
system.caches.m_outstandReqHistSeqr      |           0      0.00%      0.00% | 16318293922    100.00%    100.00% |      256947      0.00%    100.00% |           0      0.00%    100.00% |           0      0.00%    100.00% |           0      0.00%    100.00% |           0      0.00%    100.00% |           0      0.00%    100.00% |           0      0.00%    100.00% |           0      0.00%    100.00% (Unspecified)
system.caches.m_outstandReqHistSeqr::total  16318550869                       (Unspecified)
system.caches.m_latencyHistSeqr::bucket_size          512                       (Unspecified)
system.caches.m_latencyHistSeqr::max_bucket         5119                       (Unspecified)
system.caches.m_latencyHistSeqr::samples  16318550868                       (Unspecified)
system.caches.m_latencyHistSeqr::mean        1.359156                       (Unspecified)
system.caches.m_latencyHistSeqr::gmean       1.013577                       (Unspecified)
system.caches.m_latencyHistSeqr::stdev      13.699305                       (Unspecified)
system.caches.m_latencyHistSeqr          | 16314639679     99.98%     99.98% |     3665612      0.02%    100.00% |       66626      0.00%    100.00% |      164459      0.00%    100.00% |       14346      0.00%    100.00% |         141      0.00%    100.00% |           5      0.00%    100.00% |           0      0.00%    100.00% |           0      0.00%    100.00% |           0      0.00%    100.00% (Unspecified)
system.caches.m_latencyHistSeqr::total    16318550868                       (Unspecified)
system.caches.m_hitLatencyHistSeqr::bucket_size            1                       (Unspecified)
system.caches.m_hitLatencyHistSeqr::max_bucket            9                       (Unspecified)
system.caches.m_hitLatencyHistSeqr::samples  16247801590                       (Unspecified)
system.caches.m_hitLatencyHistSeqr::mean            1                       (Unspecified)
system.caches.m_hitLatencyHistSeqr::gmean            1                       (Unspecified)
system.caches.m_hitLatencyHistSeqr       |           0      0.00%      0.00% | 16247801590    100.00%    100.00% |           0      0.00%    100.00% |           0      0.00%    100.00% |           0      0.00%    100.00% |           0      0.00%    100.00% |           0      0.00%    100.00% |           0      0.00%    100.00% |           0      0.00%    100.00% |           0      0.00%    100.00% (Unspecified)
system.caches.m_hitLatencyHistSeqr::total  16247801590                       (Unspecified)
system.caches.m_missLatencyHistSeqr::bucket_size          512                       (Unspecified)
system.caches.m_missLatencyHistSeqr::max_bucket         5119                       (Unspecified)
system.caches.m_missLatencyHistSeqr::samples     70749278                       (Unspecified)
system.caches.m_missLatencyHistSeqr::mean    83.840579                       (Unspecified)
system.caches.m_missLatencyHistSeqr::gmean    22.434458                       (Unspecified)
system.caches.m_missLatencyHistSeqr::stdev   190.929583                       (Unspecified)
system.caches.m_missLatencyHistSeqr      |    66838089     94.47%     94.47% |     3665612      5.18%     99.65% |       66626      0.09%     99.75% |      164459      0.23%     99.98% |       14346      0.02%    100.00% |         141      0.00%    100.00% |           5      0.00%    100.00% |           0      0.00%    100.00% |           0      0.00%    100.00% |           0      0.00%    100.00% (Unspecified)
system.caches.m_missLatencyHistSeqr::total     70749278                       (Unspecified)
system.caches.delayVCHist.vnet_0::bucket_size           64                       # delay histogram for vnet_0 (Unspecified)
system.caches.delayVCHist.vnet_0::max_bucket          639                       # delay histogram for vnet_0 (Unspecified)
system.caches.delayVCHist.vnet_0::samples    112910975                       # delay histogram for vnet_0 (Unspecified)
system.caches.delayVCHist.vnet_0::mean       0.581324                       # delay histogram for vnet_0 (Unspecified)
system.caches.delayVCHist.vnet_0::stdev      2.081614                       # delay histogram for vnet_0 (Unspecified)
system.caches.delayVCHist.vnet_0         |   112910961    100.00%    100.00% |           9      0.00%    100.00% |           1      0.00%    100.00% |           1      0.00%    100.00% |           0      0.00%    100.00% |           0      0.00%    100.00% |           0      0.00%    100.00% |           2      0.00%    100.00% |           0      0.00%    100.00% |           1      0.00%    100.00% # delay histogram for vnet_0 (Unspecified)
system.caches.delayVCHist.vnet_0::total     112910975                       # delay histogram for vnet_0 (Unspecified)
system.caches.delayVCHist.vnet_1::bucket_size            1                       # delay histogram for vnet_1 (Unspecified)
system.caches.delayVCHist.vnet_1::max_bucket            9                       # delay histogram for vnet_1 (Unspecified)
system.caches.delayVCHist.vnet_1::samples    113692156                       # delay histogram for vnet_1 (Unspecified)
system.caches.delayVCHist.vnet_1::mean       0.000218                       # delay histogram for vnet_1 (Unspecified)
system.caches.delayVCHist.vnet_1::stdev      0.035213                       # delay histogram for vnet_1 (Unspecified)
system.caches.delayVCHist.vnet_1         |   113686910    100.00%    100.00% |           0      0.00%    100.00% |        1434      0.00%    100.00% |           0      0.00%    100.00% |        1368      0.00%    100.00% |           0      0.00%    100.00% |        1538      0.00%    100.00% |           0      0.00%    100.00% |         906      0.00%    100.00% |           0      0.00%    100.00% # delay histogram for vnet_1 (Unspecified)
system.caches.delayVCHist.vnet_1::total     113692156                       # delay histogram for vnet_1 (Unspecified)
system.caches.delayVCHist.vnet_2::bucket_size            1                       # delay histogram for vnet_2 (Unspecified)
system.caches.delayVCHist.vnet_2::max_bucket            9                       # delay histogram for vnet_2 (Unspecified)
system.caches.delayVCHist.vnet_2::samples      1671308                       # delay histogram for vnet_2 (Unspecified)
system.caches.delayVCHist.vnet_2::mean       0.000128                       # delay histogram for vnet_2 (Unspecified)
system.caches.delayVCHist.vnet_2::stdev      0.016002                       # delay histogram for vnet_2 (Unspecified)
system.caches.delayVCHist.vnet_2         |     1671201     99.99%     99.99% |           0      0.00%     99.99% |         107      0.01%    100.00% |           0      0.00%    100.00% |           0      0.00%    100.00% |           0      0.00%    100.00% |           0      0.00%    100.00% |           0      0.00%    100.00% |           0      0.00%    100.00% |           0      0.00%    100.00% # delay histogram for vnet_2 (Unspecified)
system.caches.delayVCHist.vnet_2::total       1671308                       # delay histogram for vnet_2 (Unspecified)
system.caches.L1Cache_Controller.Load    |   838249253     47.93%     47.93% |   910471580     52.07%    100.00% (Unspecified)
system.caches.L1Cache_Controller.Load::total   1748720833                       (Unspecified)
system.caches.L1Cache_Controller.Ifetch  |18446744072074332160     50.00%     50.00% |18446744072387033088     50.00%    100.00% (Unspecified)
system.caches.L1Cache_Controller.Ifetch::total 36893488144461365248                       (Unspecified)
system.caches.L1Cache_Controller.Store   |   159829848     45.97%     45.97% |   187868101     54.03%    100.00% (Unspecified)
system.caches.L1Cache_Controller.Store::total    347697949                       (Unspecified)
system.caches.L1Cache_Controller.Inv     |      517302     48.94%     48.94% |      539626     51.06%    100.00% (Unspecified)
system.caches.L1Cache_Controller.Inv::total      1056928                       (Unspecified)
system.caches.L1Cache_Controller.L1_Replacement |    33919197     48.03%     48.03% |    36707178     51.97%    100.00% (Unspecified)
system.caches.L1Cache_Controller.L1_Replacement::total     70626375                       (Unspecified)
system.caches.L1Cache_Controller.Fwd_GETX |       21749     64.00%     64.00% |       12233     36.00%    100.00% (Unspecified)
system.caches.L1Cache_Controller.Fwd_GETX::total        33982                       (Unspecified)
system.caches.L1Cache_Controller.Fwd_GETS |      312941     53.92%     53.92% |      267457     46.08%    100.00% (Unspecified)
system.caches.L1Cache_Controller.Fwd_GETS::total       580398                       (Unspecified)
system.caches.L1Cache_Controller.Data    |        5774     98.72%     98.72% |          75      1.28%    100.00% (Unspecified)
system.caches.L1Cache_Controller.Data::total         5849                       (Unspecified)
system.caches.L1Cache_Controller.Data_Exclusive |     6447587     43.14%     43.14% |     8499062     56.86%    100.00% (Unspecified)
system.caches.L1Cache_Controller.Data_Exclusive::total     14946649                       (Unspecified)
system.caches.L1Cache_Controller.DataS_fromL1 |      267457     46.08%     46.08% |      312941     53.92%    100.00% (Unspecified)
system.caches.L1Cache_Controller.DataS_fromL1::total       580398                       (Unspecified)
system.caches.L1Cache_Controller.Data_all_Acks |    27235205     49.35%     49.35% |    27951865     50.65%    100.00% (Unspecified)
system.caches.L1Cache_Controller.Data_all_Acks::total     55187070                       (Unspecified)
system.caches.L1Cache_Controller.Ack     |       24334     83.02%     83.02% |        4978     16.98%    100.00% (Unspecified)
system.caches.L1Cache_Controller.Ack::total        29312                       (Unspecified)
system.caches.L1Cache_Controller.Ack_all |       30108     85.63%     85.63% |        5053     14.37%    100.00% (Unspecified)
system.caches.L1Cache_Controller.Ack_all::total        35161                       (Unspecified)
system.caches.L1Cache_Controller.WB_Ack  |     8791512     42.94%     42.94% |    11682818     57.06%    100.00% (Unspecified)
system.caches.L1Cache_Controller.WB_Ack::total     20474330                       (Unspecified)
system.caches.L1Cache_Controller.NP.Load |    31089283     48.43%     48.43% |    33107475     51.57%    100.00% (Unspecified)
system.caches.L1Cache_Controller.NP.Load::total     64196758                       (Unspecified)
system.caches.L1Cache_Controller.NP.Ifetch |      171496     53.97%     53.97% |      146244     46.03%    100.00% (Unspecified)
system.caches.L1Cache_Controller.NP.Ifetch::total       317740                       (Unspecified)
system.caches.L1Cache_Controller.NP.Store |     2667114     43.51%     43.51% |     3462163     56.49%    100.00% (Unspecified)
system.caches.L1Cache_Controller.NP.Store::total      6129277                       (Unspecified)
system.caches.L1Cache_Controller.NP.Inv  |      472832     49.36%     49.36% |      485165     50.64%    100.00% (Unspecified)
system.caches.L1Cache_Controller.NP.Inv::total       957997                       (Unspecified)
system.caches.L1Cache_Controller.I.Load  |        4587     14.04%     14.04% |       28082     85.96%    100.00% (Unspecified)
system.caches.L1Cache_Controller.I.Load::total        32669                       (Unspecified)
system.caches.L1Cache_Controller.I.Ifetch |       22588     54.05%     54.05% |       19203     45.95%    100.00% (Unspecified)
system.caches.L1Cache_Controller.I.Ifetch::total        41791                       (Unspecified)
system.caches.L1Cache_Controller.I.Store |         954     55.30%     55.30% |         771     44.70%    100.00% (Unspecified)
system.caches.L1Cache_Controller.I.Store::total         1725                       (Unspecified)
system.caches.L1Cache_Controller.I.L1_Replacement |       37846     67.25%     67.25% |       18428     32.75%    100.00% (Unspecified)
system.caches.L1Cache_Controller.I.L1_Replacement::total        56274                       (Unspecified)
system.caches.L1Cache_Controller.S.Load  |   318150086     49.56%     49.56% |   323752680     50.44%    100.00% (Unspecified)
system.caches.L1Cache_Controller.S.Load::total    641902766                       (Unspecified)
system.caches.L1Cache_Controller.S.Ifetch |18446744072074139648     50.00%     50.00% |18446744072386867200     50.00%    100.00% (Unspecified)
system.caches.L1Cache_Controller.S.Ifetch::total 36893488144461004800                       (Unspecified)
system.caches.L1Cache_Controller.S.Store |       24335     83.00%     83.00% |        4983     17.00%    100.00% (Unspecified)
system.caches.L1Cache_Controller.S.Store::total        29318                       (Unspecified)
system.caches.L1Cache_Controller.S.Inv   |       33437     39.06%     39.06% |       52168     60.94%    100.00% (Unspecified)
system.caches.L1Cache_Controller.S.Inv::total        85605                       (Unspecified)
system.caches.L1Cache_Controller.S.L1_Replacement |    25089839     50.08%     50.08% |    25005932     49.92%    100.00% (Unspecified)
system.caches.L1Cache_Controller.S.L1_Replacement::total     50095771                       (Unspecified)
system.caches.L1Cache_Controller.E.Load  |   250879330     50.01%     50.01% |   250735875     49.99%    100.00% (Unspecified)
system.caches.L1Cache_Controller.E.Load::total    501615205                       (Unspecified)
system.caches.L1Cache_Controller.E.Store |      183700      8.85%      8.85% |     1893057     91.15%    100.00% (Unspecified)
system.caches.L1Cache_Controller.E.Store::total      2076757                       (Unspecified)
system.caches.L1Cache_Controller.E.Inv   |        7942     88.67%     88.67% |        1015     11.33%    100.00% (Unspecified)
system.caches.L1Cache_Controller.E.Inv::total         8957                       (Unspecified)
system.caches.L1Cache_Controller.E.L1_Replacement |     5974754     48.54%     48.54% |     6334881     51.46%    100.00% (Unspecified)
system.caches.L1Cache_Controller.E.L1_Replacement::total     12309635                       (Unspecified)
system.caches.L1Cache_Controller.E.Fwd_GETX |          10      0.80%      0.80% |        1244     99.20%    100.00% (Unspecified)
system.caches.L1Cache_Controller.E.Fwd_GETX::total         1254                       (Unspecified)
system.caches.L1Cache_Controller.E.Fwd_GETS |      278480     51.08%     51.08% |      266705     48.92%    100.00% (Unspecified)
system.caches.L1Cache_Controller.E.Fwd_GETS::total       545185                       (Unspecified)
system.caches.L1Cache_Controller.M.Load  |   238125967     44.02%     44.02% |   302847468     55.98%    100.00% (Unspecified)
system.caches.L1Cache_Controller.M.Load::total    540973435                       (Unspecified)
system.caches.L1Cache_Controller.M.Store |   156953745     46.24%     46.24% |   182507127     53.76%    100.00% (Unspecified)
system.caches.L1Cache_Controller.M.Store::total    339460872                       (Unspecified)
system.caches.L1Cache_Controller.M.Inv   |        3090     71.00%     71.00% |        1262     29.00%    100.00% (Unspecified)
system.caches.L1Cache_Controller.M.Inv::total         4352                       (Unspecified)
system.caches.L1Cache_Controller.M.L1_Replacement |     2816758     34.50%     34.50% |     5347937     65.50%    100.00% (Unspecified)
system.caches.L1Cache_Controller.M.L1_Replacement::total      8164695                       (Unspecified)
system.caches.L1Cache_Controller.M.Fwd_GETX |       21739     66.42%     66.42% |       10989     33.58%    100.00% (Unspecified)
system.caches.L1Cache_Controller.M.Fwd_GETX::total        32728                       (Unspecified)
system.caches.L1Cache_Controller.M.Fwd_GETS |       34461     97.86%     97.86% |         752      2.14%    100.00% (Unspecified)
system.caches.L1Cache_Controller.M.Fwd_GETS::total        35213                       (Unspecified)
system.caches.L1Cache_Controller.IS.Inv  |           0      0.00%      0.00% |          11    100.00%    100.00% (Unspecified)
system.caches.L1Cache_Controller.IS.Inv::total           11                       (Unspecified)
system.caches.L1Cache_Controller.IS.Data_Exclusive |     6447587     43.14%     43.14% |     8499062     56.86%    100.00% (Unspecified)
system.caches.L1Cache_Controller.IS.Data_Exclusive::total     14946649                       (Unspecified)
system.caches.L1Cache_Controller.IS.DataS_fromL1 |      267457     46.08%     46.08% |      312930     53.92%    100.00% (Unspecified)
system.caches.L1Cache_Controller.IS.DataS_fromL1::total       580387                       (Unspecified)
system.caches.L1Cache_Controller.IS.Data_all_Acks |    24572910     50.09%     50.09% |    24489001     49.91%    100.00% (Unspecified)
system.caches.L1Cache_Controller.IS.Data_all_Acks::total     49061911                       (Unspecified)
system.caches.L1Cache_Controller.IM.Data |        5774     98.72%     98.72% |          75      1.28%    100.00% (Unspecified)
system.caches.L1Cache_Controller.IM.Data::total         5849                       (Unspecified)
system.caches.L1Cache_Controller.IM.Data_all_Acks |     2662295     43.46%     43.46% |     3462864     56.54%    100.00% (Unspecified)
system.caches.L1Cache_Controller.IM.Data_all_Acks::total      6125159                       (Unspecified)
system.caches.L1Cache_Controller.SM.Inv  |           1     16.67%     16.67% |           5     83.33%    100.00% (Unspecified)
system.caches.L1Cache_Controller.SM.Inv::total            6                       (Unspecified)
system.caches.L1Cache_Controller.SM.Ack  |       24334     83.02%     83.02% |        4978     16.98%    100.00% (Unspecified)
system.caches.L1Cache_Controller.SM.Ack::total        29312                       (Unspecified)
system.caches.L1Cache_Controller.SM.Ack_all |       30108     85.63%     85.63% |        5053     14.37%    100.00% (Unspecified)
system.caches.L1Cache_Controller.SM.Ack_all::total        35161                       (Unspecified)
system.caches.L1Cache_Controller.IS_I.DataS_fromL1 |           0      0.00%      0.00% |          11    100.00%    100.00% (Unspecified)
system.caches.L1Cache_Controller.IS_I.DataS_fromL1::total           11                       (Unspecified)
system.caches.L1Cache_Controller.M_I.WB_Ack |     8791512     42.94%     42.94% |    11682818     57.06%    100.00% (Unspecified)
system.caches.L1Cache_Controller.M_I.WB_Ack::total     20474330                       (Unspecified)
system.caches.Directory_Controller.Fetch     10481147      0.00%      0.00% (Unspecified)
system.caches.Directory_Controller.Data       5738778      0.00%      0.00% (Unspecified)
system.caches.Directory_Controller.Memory_Data     10481147      0.00%      0.00% (Unspecified)
system.caches.Directory_Controller.Memory_Ack      5738778      0.00%      0.00% (Unspecified)
system.caches.Directory_Controller.CleanReplacement      4611297      0.00%      0.00% (Unspecified)
system.caches.Directory_Controller.I.Fetch     10481147      0.00%      0.00% (Unspecified)
system.caches.Directory_Controller.M.Data      5738778      0.00%      0.00% (Unspecified)
system.caches.Directory_Controller.M.CleanReplacement      4611297      0.00%      0.00% (Unspecified)
system.caches.Directory_Controller.IM.Memory_Data     10481147      0.00%      0.00% (Unspecified)
system.caches.Directory_Controller.MI.Memory_Ack      5738778      0.00%      0.00% (Unspecified)
system.caches.L2Cache_Controller.L1_GET_INSTR |       20029      5.57%      5.57% |       58670     16.32%     21.89% |       48462     13.48%     35.36% |       15545      4.32%     39.69% |       36988     10.29%     49.97% |       55503     15.44%     65.41% |       71340     19.84%     85.25% |       53042     14.75%    100.00% (Unspecified)
system.caches.L2Cache_Controller.L1_GET_INSTR::total       359579                       (Unspecified)
system.caches.L2Cache_Controller.L1_GETS |     8069889     12.56%     12.56% |     8167923     12.72%     25.28% |     7998213     12.45%     37.73% |     8054778     12.54%     50.27% |     7967727     12.40%     62.67% |     8024132     12.49%     75.16% |     8004701     12.46%     87.62% |     7951042     12.38%    100.00% (Unspecified)
system.caches.L2Cache_Controller.L1_GETS::total     64238405                       (Unspecified)
system.caches.L2Cache_Controller.L1_GETX |      773858     12.62%     12.62% |      763267     12.45%     25.07% |      757441     12.35%     37.43% |      763321     12.45%     49.88% |      758962     12.38%     62.25% |      778431     12.70%     74.95% |      769127     12.54%     87.50% |      766618     12.50%    100.00% (Unspecified)
system.caches.L2Cache_Controller.L1_GETX::total      6131025                       (Unspecified)
system.caches.L2Cache_Controller.L1_UPGRADE |        5872     15.91%     15.91% |        5235     14.19%     30.10% |         609      1.65%     31.75% |         590      1.60%     33.35% |         685      1.86%     35.21% |         606      1.64%     36.85% |       22572     61.17%     98.02% |         729      1.98%    100.00% (Unspecified)
system.caches.L2Cache_Controller.L1_UPGRADE::total        36898                       (Unspecified)
system.caches.L2Cache_Controller.L1_PUTX |     2567529     12.54%     12.54% |     2575120     12.58%     25.12% |     2537088     12.39%     37.51% |     2556468     12.49%     50.00% |     2560371     12.51%     62.50% |     2570234     12.55%     75.05% |     2550791     12.46%     87.51% |     2556729     12.49%    100.00% (Unspecified)
system.caches.L2Cache_Controller.L1_PUTX::total     20474330                       (Unspecified)
system.caches.L2Cache_Controller.L2_Replacement |      717074     12.50%     12.50% |      717027     12.50%     25.00% |      717261     12.50%     37.51% |      717005     12.50%     50.01% |      716974     12.50%     62.51% |      717121     12.50%     75.01% |      716669     12.49%     87.50% |      716914     12.50%    100.00% (Unspecified)
system.caches.L2Cache_Controller.L2_Replacement::total      5736045                       (Unspecified)
system.caches.L2Cache_Controller.L2_Replacement_clean |      577306     12.51%     12.51% |      577131     12.51%     25.02% |      579266     12.55%     37.57% |      578124     12.53%     50.10% |      575624     12.48%     62.58% |      575132     12.46%     75.04% |      576096     12.49%     87.53% |      575351     12.47%    100.00% (Unspecified)
system.caches.L2Cache_Controller.L2_Replacement_clean::total      4614030                       (Unspecified)
system.caches.L2Cache_Controller.Mem_Data |     1310764     12.51%     12.51% |     1310542     12.50%     25.01% |     1312911     12.53%     37.54% |     1311513     12.51%     50.05% |     1308982     12.49%     62.54% |     1308637     12.49%     75.02% |     1309149     12.49%     87.51% |     1308649     12.49%    100.00% (Unspecified)
system.caches.L2Cache_Controller.Mem_Data::total     10481147                       (Unspecified)
system.caches.L2Cache_Controller.Mem_Ack |     1294380     12.51%     12.51% |     1294158     12.50%     25.01% |     1296527     12.53%     37.54% |     1295129     12.51%     50.05% |     1292598     12.49%     62.54% |     1292253     12.49%     75.02% |     1292765     12.49%     87.51% |     1292265     12.49%    100.00% (Unspecified)
system.caches.L2Cache_Controller.Mem_Ack::total     10350075                       (Unspecified)
system.caches.L2Cache_Controller.WB_Data |        9895     25.01%     25.01% |        4669     11.80%     36.81% |        1193      3.02%     39.83% |        1275      3.22%     43.05% |        1472      3.72%     46.77% |        1413      3.57%     50.34% |       18163     45.91%     96.25% |        1485      3.75%    100.00% (Unspecified)
system.caches.L2Cache_Controller.WB_Data::total        39565                       (Unspecified)
system.caches.L2Cache_Controller.WB_Data_clean |       68053     12.48%     12.48% |       68441     12.55%     25.04% |       68983     12.65%     37.69% |       67731     12.42%     50.11% |       68011     12.47%     62.59% |       68088     12.49%     75.08% |       68482     12.56%     87.64% |       67396     12.36%    100.00% (Unspecified)
system.caches.L2Cache_Controller.WB_Data_clean::total       545185                       (Unspecified)
system.caches.L2Cache_Controller.Ack     |       62070     12.55%     12.55% |       61576     12.45%     24.99% |       62785     12.69%     37.68% |       61251     12.38%     50.06% |       61784     12.49%     62.55% |       61921     12.52%     75.06% |       62291     12.59%     87.65% |       61083     12.35%    100.00% (Unspecified)
system.caches.L2Cache_Controller.Ack::total       494761                       (Unspecified)
system.caches.L2Cache_Controller.Ack_all |       65739     12.58%     12.58% |       65222     12.48%     25.06% |       66206     12.67%     37.72% |       64779     12.39%     50.12% |       65142     12.46%     62.58% |       65243     12.48%     75.07% |       65627     12.56%     87.62% |       64696     12.38%    100.00% (Unspecified)
system.caches.L2Cache_Controller.Ack_all::total       522654                       (Unspecified)
system.caches.L2Cache_Controller.Unblock |       77363     13.33%     13.33% |       72662     12.52%     25.85% |       69746     12.02%     37.87% |       68461     11.80%     49.66% |       68953     11.88%     61.54% |       68848     11.86%     73.40% |       86082     14.83%     88.24% |       68283     11.76%    100.00% (Unspecified)
system.caches.L2Cache_Controller.Unblock::total       580398                       (Unspecified)
system.caches.L2Cache_Controller.Exclusive_Unblock |     2652782     12.57%     12.57% |     2654103     12.57%     25.14% |     2613114     12.38%     37.52% |     2631295     12.47%     49.99% |     2635599     12.49%     62.48% |     2645511     12.53%     75.01% |     2643240     12.52%     87.53% |     2631325     12.47%    100.00% (Unspecified)
system.caches.L2Cache_Controller.Exclusive_Unblock::total     21106969                       (Unspecified)
system.caches.L2Cache_Controller.NP.L1_GET_INSTR |        5216     13.03%     13.03% |        5520     13.79%     26.83% |        4871     12.17%     39.00% |        4749     11.87%     50.87% |        4876     12.19%     63.05% |        4829     12.07%     75.12% |        4866     12.16%     87.28% |        5089     12.72%    100.00% (Unspecified)
system.caches.L2Cache_Controller.NP.L1_GET_INSTR::total        40016                       (Unspecified)
system.caches.L2Cache_Controller.NP.L1_GETS |      687399     12.50%     12.50% |      687161     12.50%     25.00% |      689880     12.55%     37.55% |      688836     12.53%     50.08% |      686232     12.48%     62.56% |      685865     12.48%     75.04% |      686517     12.49%     87.53% |      685694     12.47%    100.00% (Unspecified)
system.caches.L2Cache_Controller.NP.L1_GETS::total      5497584                       (Unspecified)
system.caches.L2Cache_Controller.NP.L1_GETX |      618149     12.50%     12.50% |      617861     12.50%     25.00% |      618160     12.50%     37.51% |      617928     12.50%     50.01% |      617874     12.50%     62.51% |      617943     12.50%     75.01% |      617766     12.50%     87.50% |      617866     12.50%    100.00% (Unspecified)
system.caches.L2Cache_Controller.NP.L1_GETX::total      4943547                       (Unspecified)
system.caches.L2Cache_Controller.SS.L1_GET_INSTR |       14208      4.51%      4.51% |       52508     16.67%     21.18% |       43061     13.67%     34.84% |       10274      3.26%     38.10% |       31486      9.99%     48.10% |       50128     15.91%     64.01% |       65963     20.94%     84.94% |       47434     15.06%    100.00% (Unspecified)
system.caches.L2Cache_Controller.SS.L1_GET_INSTR::total       315062                       (Unspecified)
system.caches.L2Cache_Controller.SS.L1_GETS |     6119377     12.56%     12.56% |     6209581     12.75%     25.32% |     6073328     12.47%     37.79% |     6118876     12.56%     50.35% |     6022757     12.37%     62.72% |     6088748     12.50%     75.22% |     6050499     12.42%     87.64% |     6018720     12.36%    100.00% (Unspecified)
system.caches.L2Cache_Controller.SS.L1_GETS::total     48701886                       (Unspecified)
system.caches.L2Cache_Controller.SS.L1_GETX |        3286     56.18%     56.18% |           0      0.00%     56.18% |          13      0.22%     56.40% |           1      0.02%     56.42% |          88      1.50%     57.92% |           1      0.02%     57.94% |        2449     41.87%     99.81% |          11      0.19%    100.00% (Unspecified)
system.caches.L2Cache_Controller.SS.L1_GETX::total         5849                       (Unspecified)
system.caches.L2Cache_Controller.SS.L1_UPGRADE |        5869     20.02%     20.02% |        5234     17.86%     37.88% |         609      2.08%     39.96% |         590      2.01%     41.97% |         685      2.34%     44.31% |         605      2.06%     46.37% |       14991     51.14%     97.51% |         729      2.49%    100.00% (Unspecified)
system.caches.L2Cache_Controller.SS.L1_UPGRADE::total        29312                       (Unspecified)
system.caches.L2Cache_Controller.SS.L2_Replacement |         201     12.01%     12.01% |         215     12.84%     24.85% |         204     12.19%     37.04% |         200     11.95%     48.98% |         212     12.66%     61.65% |         229     13.68%     75.33% |         205     12.25%     87.57% |         208     12.43%    100.00% (Unspecified)
system.caches.L2Cache_Controller.SS.L2_Replacement::total         1674                       (Unspecified)
system.caches.L2Cache_Controller.SS.L2_Replacement_clean |       64325     12.56%     12.56% |       63859     12.47%     25.03% |       64938     12.68%     37.72% |       63436     12.39%     50.11% |       63808     12.46%     62.57% |       63927     12.49%     75.05% |       64306     12.56%     87.61% |       63424     12.39%    100.00% (Unspecified)
system.caches.L2Cache_Controller.SS.L2_Replacement_clean::total       512023                       (Unspecified)
system.caches.L2Cache_Controller.M.L1_GETS |     1185702     12.55%     12.55% |     1198478     12.68%     25.23% |     1165221     12.33%     37.56% |     1178578     12.47%     50.04% |     1189752     12.59%     62.63% |     1180639     12.49%     75.12% |     1172626     12.41%     87.53% |     1178316     12.47%    100.00% (Unspecified)
system.caches.L2Cache_Controller.M.L1_GETS::total      9449312                       (Unspecified)
system.caches.L2Cache_Controller.M.L1_GETX |      146964     12.81%     12.81% |      141304     12.31%     25.12% |      135092     11.77%     36.89% |      141318     12.31%     49.20% |      136992     11.94%     61.14% |      156426     13.63%     74.77% |      144834     12.62%     87.39% |      144700     12.61%    100.00% (Unspecified)
system.caches.L2Cache_Controller.M.L1_GETX::total      1147630                       (Unspecified)
system.caches.L2Cache_Controller.M.L2_Replacement |      716644     12.50%     12.50% |      716670     12.50%     25.00% |      716914     12.51%     37.51% |      716606     12.50%     50.01% |      716553     12.50%     62.51% |      716602     12.50%     75.01% |      716232     12.49%     87.50% |      716464     12.50%    100.00% (Unspecified)
system.caches.L2Cache_Controller.M.L2_Replacement::total      5732685                       (Unspecified)
system.caches.L2Cache_Controller.M.L2_Replacement_clean |      511412     12.50%     12.50% |      511818     12.51%     25.02% |      512977     12.54%     37.56% |      513199     12.55%     50.10% |      510373     12.48%     62.58% |      509755     12.46%     75.04% |      510343     12.48%     87.52% |      510507     12.48%    100.00% (Unspecified)
system.caches.L2Cache_Controller.M.L2_Replacement_clean::total      4090384                       (Unspecified)
system.caches.L2Cache_Controller.MT.L1_GETS |       77363     13.33%     13.33% |       72662     12.52%     25.85% |       69746     12.02%     37.87% |       68461     11.80%     49.66% |       68953     11.88%     61.54% |       68848     11.86%     73.40% |       86082     14.83%     88.24% |       68283     11.76%    100.00% (Unspecified)
system.caches.L2Cache_Controller.MT.L1_GETS::total       580398                       (Unspecified)
system.caches.L2Cache_Controller.MT.L1_GETX |        5456     16.06%     16.06% |        4101     12.07%     28.12% |        4176     12.29%     40.41% |        4071     11.98%     52.39% |        4007     11.79%     64.18% |        4060     11.95%     76.13% |        4076     11.99%     88.13% |        4035     11.87%    100.00% (Unspecified)
system.caches.L2Cache_Controller.MT.L1_GETX::total        33982                       (Unspecified)
system.caches.L2Cache_Controller.MT.L1_PUTX |     2567529     12.54%     12.54% |     2575120     12.58%     25.12% |     2537088     12.39%     37.51% |     2556468     12.49%     50.00% |     2560371     12.51%     62.50% |     2570234     12.55%     75.05% |     2550791     12.46%     87.51% |     2556729     12.49%    100.00% (Unspecified)
system.caches.L2Cache_Controller.MT.L1_PUTX::total     20474330                       (Unspecified)
system.caches.L2Cache_Controller.MT.L2_Replacement |         229     13.58%     13.58% |         142      8.42%     22.00% |         143      8.48%     30.49% |         199     11.80%     42.29% |         209     12.40%     54.69% |         290     17.20%     71.89% |         232     13.76%     85.65% |         242     14.35%    100.00% (Unspecified)
system.caches.L2Cache_Controller.MT.L2_Replacement::total         1686                       (Unspecified)
system.caches.L2Cache_Controller.MT.L2_Replacement_clean |        1569     13.50%     13.50% |        1454     12.51%     26.01% |        1351     11.62%     37.63% |        1489     12.81%     50.44% |        1443     12.42%     62.86% |        1450     12.48%     75.33% |        1447     12.45%     87.78% |        1420     12.22%    100.00% (Unspecified)
system.caches.L2Cache_Controller.MT.L2_Replacement_clean::total        11623                       (Unspecified)
system.caches.L2Cache_Controller.M_I.L1_GET_INSTR |           0      0.00%      0.00% |           4      8.51%      8.51% |          17     36.17%     44.68% |          12     25.53%     70.21% |           0      0.00%     70.21% |           0      0.00%     70.21% |          10     21.28%     91.49% |           4      8.51%    100.00% (Unspecified)
system.caches.L2Cache_Controller.M_I.L1_GET_INSTR::total           47                       (Unspecified)
system.caches.L2Cache_Controller.M_I.L1_GETS |           1     25.00%     25.00% |           0      0.00%     25.00% |           0      0.00%     25.00% |           0      0.00%     25.00% |           1     25.00%     50.00% |           1     25.00%     75.00% |           0      0.00%     75.00% |           1     25.00%    100.00% (Unspecified)
system.caches.L2Cache_Controller.M_I.L1_GETS::total            4                       (Unspecified)
system.caches.L2Cache_Controller.M_I.L1_GETX |           1     11.11%     11.11% |           0      0.00%     11.11% |           0      0.00%     11.11% |           3     33.33%     44.44% |           0      0.00%     44.44% |           1     11.11%     55.56% |           1     11.11%     66.67% |           3     33.33%    100.00% (Unspecified)
system.caches.L2Cache_Controller.M_I.L1_GETX::total            9                       (Unspecified)
system.caches.L2Cache_Controller.M_I.Mem_Ack |     1294380     12.51%     12.51% |     1294158     12.50%     25.01% |     1296527     12.53%     37.54% |     1295129     12.51%     50.05% |     1292598     12.49%     62.54% |     1292253     12.49%     75.02% |     1292765     12.49%     87.51% |     1292265     12.49%    100.00% (Unspecified)
system.caches.L2Cache_Controller.M_I.Mem_Ack::total     10350075                       (Unspecified)
system.caches.L2Cache_Controller.MT_I.WB_Data |         218     13.47%     13.47% |         130      8.03%     21.49% |         133      8.21%     29.71% |         192     11.86%     41.57% |         199     12.29%     53.86% |         286     17.67%     71.53% |         224     13.84%     85.36% |         237     14.64%    100.00% (Unspecified)
system.caches.L2Cache_Controller.MT_I.WB_Data::total         1619                       (Unspecified)
system.caches.L2Cache_Controller.MT_I.Ack_all |          11     16.42%     16.42% |          12     17.91%     34.33% |          10     14.93%     49.25% |           7     10.45%     59.70% |          10     14.93%     74.63% |           4      5.97%     80.60% |           8     11.94%     92.54% |           5      7.46%    100.00% (Unspecified)
system.caches.L2Cache_Controller.MT_I.Ack_all::total           67                       (Unspecified)
system.caches.L2Cache_Controller.MCT_I.WB_Data |         367     13.43%     13.43% |         318     11.64%     25.06% |         297     10.87%     35.93% |         353     12.92%     48.85% |         331     12.11%     60.96% |         367     13.43%     74.39% |         339     12.40%     86.79% |         361     13.21%    100.00% (Unspecified)
system.caches.L2Cache_Controller.MCT_I.WB_Data::total         2733                       (Unspecified)
system.caches.L2Cache_Controller.MCT_I.Ack_all |        1202     13.52%     13.52% |        1136     12.78%     26.30% |        1054     11.86%     38.16% |        1136     12.78%     50.93% |        1112     12.51%     63.44% |        1083     12.18%     75.62% |        1108     12.46%     88.09% |        1059     11.91%    100.00% (Unspecified)
system.caches.L2Cache_Controller.MCT_I.Ack_all::total         8890                       (Unspecified)
system.caches.L2Cache_Controller.I_I.L1_GET_INSTR |           0      0.00%      0.00% |           0      0.00%      0.00% |           1    100.00%    100.00% |           0      0.00%    100.00% |           0      0.00%    100.00% |           0      0.00%    100.00% |           0      0.00%    100.00% |           0      0.00%    100.00% (Unspecified)
system.caches.L2Cache_Controller.I_I.L1_GET_INSTR::total            1                       (Unspecified)
system.caches.L2Cache_Controller.I_I.Ack |       61869     12.55%     12.55% |       61361     12.44%     24.99% |       62581     12.69%     37.68% |       61051     12.38%     50.06% |       61572     12.49%     62.55% |       61692     12.51%     75.06% |       62086     12.59%     87.65% |       60875     12.35%    100.00% (Unspecified)
system.caches.L2Cache_Controller.I_I.Ack::total       493087                       (Unspecified)
system.caches.L2Cache_Controller.I_I.Ack_all |       64325     12.56%     12.56% |       63859     12.47%     25.03% |       64938     12.68%     37.72% |       63436     12.39%     50.11% |       63808     12.46%     62.57% |       63927     12.49%     75.05% |       64306     12.56%     87.61% |       63424     12.39%    100.00% (Unspecified)
system.caches.L2Cache_Controller.I_I.Ack_all::total       512023                       (Unspecified)
system.caches.L2Cache_Controller.S_I.Ack |         201     12.01%     12.01% |         215     12.84%     24.85% |         204     12.19%     37.04% |         200     11.95%     48.98% |         212     12.66%     61.65% |         229     13.68%     75.33% |         205     12.25%     87.57% |         208     12.43%    100.00% (Unspecified)
system.caches.L2Cache_Controller.S_I.Ack::total         1674                       (Unspecified)
system.caches.L2Cache_Controller.S_I.Ack_all |         201     12.01%     12.01% |         215     12.84%     24.85% |         204     12.19%     37.04% |         200     11.95%     48.98% |         212     12.66%     61.65% |         229     13.68%     75.33% |         205     12.25%     87.57% |         208     12.43%    100.00% (Unspecified)
system.caches.L2Cache_Controller.S_I.Ack_all::total         1674                       (Unspecified)
system.caches.L2Cache_Controller.ISS.L1_GETS |          43     17.41%     17.41% |          36     14.57%     31.98% |          37     14.98%     46.96% |          27     10.93%     57.89% |          31     12.55%     70.45% |          28     11.34%     81.78% |          19      7.69%     89.47% |          26     10.53%    100.00% (Unspecified)
system.caches.L2Cache_Controller.ISS.L1_GETS::total          247                       (Unspecified)
system.caches.L2Cache_Controller.ISS.Mem_Data |      687356     12.50%     12.50% |      687125     12.50%     25.00% |      689843     12.55%     37.55% |      688809     12.53%     50.08% |      686201     12.48%     62.56% |      685837     12.48%     75.04% |      686498     12.49%     87.53% |      685668     12.47%    100.00% (Unspecified)
system.caches.L2Cache_Controller.ISS.Mem_Data::total      5497337                       (Unspecified)
system.caches.L2Cache_Controller.IS.L1_GET_INSTR |         605     13.59%     13.59% |         638     14.33%     27.91% |         512     11.50%     39.41% |         510     11.45%     50.86% |         626     14.06%     64.92% |         546     12.26%     77.18% |         501     11.25%     88.43% |         515     11.57%    100.00% (Unspecified)
system.caches.L2Cache_Controller.IS.L1_GET_INSTR::total         4453                       (Unspecified)
system.caches.L2Cache_Controller.IS.Mem_Data |        5259     13.06%     13.06% |        5556     13.80%     26.86% |        4908     12.19%     39.05% |        4776     11.86%     50.91% |        4907     12.19%     63.10% |        4857     12.06%     75.16% |        4885     12.13%     87.30% |        5115     12.70%    100.00% (Unspecified)
system.caches.L2Cache_Controller.IS.Mem_Data::total        40263                       (Unspecified)
system.caches.L2Cache_Controller.IM.L1_GETX |           1     16.67%     16.67% |           1     16.67%     33.33% |           0      0.00%     33.33% |           0      0.00%     33.33% |           0      0.00%     33.33% |           0      0.00%     33.33% |           1     16.67%     50.00% |           3     50.00%    100.00% (Unspecified)
system.caches.L2Cache_Controller.IM.L1_GETX::total            6                       (Unspecified)
system.caches.L2Cache_Controller.IM.Mem_Data |      618149     12.50%     12.50% |      617861     12.50%     25.00% |      618160     12.50%     37.51% |      617928     12.50%     50.01% |      617874     12.50%     62.51% |      617943     12.50%     75.01% |      617766     12.50%     87.50% |      617866     12.50%    100.00% (Unspecified)
system.caches.L2Cache_Controller.IM.Mem_Data::total      4943547                       (Unspecified)
system.caches.L2Cache_Controller.SS_MB.L1_GETS |           0      0.00%      0.00% |           0      0.00%      0.00% |           0      0.00%      0.00% |           0      0.00%      0.00% |           1      0.01%      0.01% |           0      0.00%      0.01% |        8955     99.99%    100.00% |           0      0.00%    100.00% (Unspecified)
system.caches.L2Cache_Controller.SS_MB.L1_GETS::total         8956                       (Unspecified)
system.caches.L2Cache_Controller.SS_MB.L1_UPGRADE |           3     50.00%     50.00% |           1     16.67%     66.67% |           0      0.00%     66.67% |           0      0.00%     66.67% |           0      0.00%     66.67% |           1     16.67%     83.33% |           1     16.67%    100.00% |           0      0.00%    100.00% (Unspecified)
system.caches.L2Cache_Controller.SS_MB.L1_UPGRADE::total            6                       (Unspecified)
system.caches.L2Cache_Controller.SS_MB.Exclusive_Unblock |        9155     26.04%     26.04% |        5234     14.89%     40.92% |         622      1.77%     42.69% |         591      1.68%     44.37% |         773      2.20%     46.57% |         606      1.72%     48.29% |       17440     49.60%     97.90% |         740      2.10%    100.00% (Unspecified)
system.caches.L2Cache_Controller.SS_MB.Exclusive_Unblock::total        35161                       (Unspecified)
system.caches.L2Cache_Controller.MT_MB.L1_GETS |           4     22.22%     22.22% |           5     27.78%     50.00% |           1      5.56%     55.56% |           0      0.00%     55.56% |           0      0.00%     55.56% |           3     16.67%     72.22% |           3     16.67%     88.89% |           2     11.11%    100.00% (Unspecified)
system.caches.L2Cache_Controller.MT_MB.L1_GETS::total           18                       (Unspecified)
system.caches.L2Cache_Controller.MT_MB.L1_GETX |           1     50.00%     50.00% |           0      0.00%     50.00% |           0      0.00%     50.00% |           0      0.00%     50.00% |           1     50.00%    100.00% |           0      0.00%    100.00% |           0      0.00%    100.00% |           0      0.00%    100.00% (Unspecified)
system.caches.L2Cache_Controller.MT_MB.L1_GETX::total            2                       (Unspecified)
system.caches.L2Cache_Controller.MT_MB.Exclusive_Unblock |     2643627     12.55%     12.55% |     2648869     12.57%     25.12% |     2612492     12.40%     37.51% |     2630704     12.48%     50.00% |     2634826     12.50%     62.50% |     2644905     12.55%     75.05% |     2625800     12.46%     87.52% |     2630585     12.48%    100.00% (Unspecified)
system.caches.L2Cache_Controller.MT_MB.Exclusive_Unblock::total     21071808                       (Unspecified)
system.caches.L2Cache_Controller.MT_IIB.WB_Data |        9310     26.44%     26.44% |        4221     11.99%     38.43% |         763      2.17%     40.59% |         730      2.07%     42.67% |         942      2.68%     45.34% |         760      2.16%     47.50% |       17600     49.98%     97.48% |         887      2.52%    100.00% (Unspecified)
system.caches.L2Cache_Controller.MT_IIB.WB_Data::total        35213                       (Unspecified)
system.caches.L2Cache_Controller.MT_IIB.WB_Data_clean |       68053     12.48%     12.48% |       68441     12.55%     25.04% |       68983     12.65%     37.69% |       67731     12.42%     50.11% |       68011     12.47%     62.59% |       68088     12.49%     75.08% |       68482     12.56%     87.64% |       67396     12.36%    100.00% (Unspecified)
system.caches.L2Cache_Controller.MT_IIB.WB_Data_clean::total       545185                       (Unspecified)
system.caches.L2Cache_Controller.MT_SB.L1_UPGRADE |           0      0.00%      0.00% |           0      0.00%      0.00% |           0      0.00%      0.00% |           0      0.00%      0.00% |           0      0.00%      0.00% |           0      0.00%      0.00% |        7580    100.00%    100.00% |           0      0.00%    100.00% (Unspecified)
system.caches.L2Cache_Controller.MT_SB.L1_UPGRADE::total         7580                       (Unspecified)
system.caches.L2Cache_Controller.MT_SB.Unblock |       77363     13.33%     13.33% |       72662     12.52%     25.85% |       69746     12.02%     37.87% |       68461     11.80%     49.66% |       68953     11.88%     61.54% |       68848     11.86%     73.40% |       86082     14.83%     88.24% |       68283     11.76%    100.00% (Unspecified)
system.caches.L2Cache_Controller.MT_SB.Unblock::total       580398                       (Unspecified)
system.caches.RequestType.LD.latency_hist_seqr::bucket_size          512                       (Unspecified)
system.caches.RequestType.LD.latency_hist_seqr::max_bucket         5119                       (Unspecified)
system.caches.RequestType.LD.latency_hist_seqr::samples   1748720833                       (Unspecified)
system.caches.RequestType.LD.latency_hist_seqr::mean     2.859249                       (Unspecified)
system.caches.RequestType.LD.latency_hist_seqr::gmean     1.111605                       (Unspecified)
system.caches.RequestType.LD.latency_hist_seqr::stdev    28.889931                       (Unspecified)
system.caches.RequestType.LD.latency_hist_seqr |  1746983385     99.90%     99.90% |     1603496      0.09%     99.99% |       46202      0.00%     99.99% |       83422      0.00%    100.00% |        4249      0.00%    100.00% |          75      0.00%    100.00% |           4      0.00%    100.00% |           0      0.00%    100.00% |           0      0.00%    100.00% |           0      0.00%    100.00% (Unspecified)
system.caches.RequestType.LD.latency_hist_seqr::total   1748720833                       (Unspecified)
system.caches.RequestType.LD.hit_latency_hist_seqr::bucket_size            1                       (Unspecified)
[...]
system.timingCpu0.exec_context.thread_0.statExecutedInstType::FloatMemWrite      1252963      0.01%    100.00% # Class of executed instruction. (Count)
system.timingCpu0.exec_context.thread_0.statExecutedInstType::IprAccess            0      0.00%    100.00% # Class of executed instruction. (Count)
system.timingCpu0.exec_context.thread_0.statExecutedInstType::InstPrefetch            0      0.00%    100.00% # Class of executed instruction. (Count)
system.timingCpu0.exec_context.thread_0.statExecutedInstType::total  10220059437                       # Class of executed instruction. (Count)
system.timingCpu0.mmu.dtb.rdAccesses        822571839                       # TLB accesses on read requests (Count)
system.timingCpu0.mmu.dtb.wrAccesses        159163365                       # TLB accesses on write requests (Count)
system.timingCpu0.mmu.dtb.rdMisses            5361179                       # TLB misses on read requests (Count)
system.timingCpu0.mmu.dtb.wrMisses             202696                       # TLB misses on write requests (Count)
system.timingCpu0.mmu.dtb.walker.power_state.pwrStateResidencyTicks::UNDEFINED 161880572984500                       # Cumulative time (in ticks) in various power states (Tick)
system.timingCpu0.mmu.itb.rdAccesses                0                       # TLB accesses on read requests (Count)
system.timingCpu0.mmu.itb.wrAccesses       6954724043                       # TLB accesses on write requests (Count)
system.timingCpu0.mmu.itb.rdMisses                  0                       # TLB misses on read requests (Count)
system.timingCpu0.mmu.itb.wrMisses               8113                       # TLB misses on write requests (Count)
system.timingCpu0.mmu.itb.walker.power_state.pwrStateResidencyTicks::UNDEFINED 161880572984500                       # Cumulative time (in ticks) in various power states (Tick)
system.timingCpu0.power_state.numTransitions          732                       # Number of power state transitions (Count)
system.timingCpu0.power_state.ticksClkGated::samples          366                       # Distribution of time spent in the clock gated state (Tick)
system.timingCpu0.power_state.ticksClkGated::mean 982857648.224044                       # Distribution of time spent in the clock gated state (Tick)
system.timingCpu0.power_state.ticksClkGated::stdev 92739081.830246                       # Distribution of time spent in the clock gated state (Tick)
system.timingCpu0.power_state.ticksClkGated::1000-5e+10          366    100.00%    100.00% # Distribution of time spent in the clock gated state (Tick)
system.timingCpu0.power_state.ticksClkGated::min_value     20877500                       # Distribution of time spent in the clock gated state (Tick)
system.timingCpu0.power_state.ticksClkGated::max_value    997928250                       # Distribution of time spent in the clock gated state (Tick)
system.timingCpu0.power_state.ticksClkGated::total          366                       # Distribution of time spent in the clock gated state (Tick)
system.timingCpu0.power_state.pwrStateResidencyTicks::ON 4639452249000                       # Cumulative time (in ticks) in various power states (Tick)
system.timingCpu0.power_state.pwrStateResidencyTicks::CLK_GATED 359725899250                       # Cumulative time (in ticks) in various power states (Tick)
system.timingCpu0.power_state.pwrStateResidencyTicks::OFF 156881394836250                       # Cumulative time (in ticks) in various power states (Tick)
system.timingCpu0.thread_0.numInsts                 0                       # Number of Instructions committed (Count)
system.timingCpu0.thread_0.numOps                   0                       # Number of Ops committed (Count)
system.timingCpu0.thread_0.numMemRefs               0                       # Number of Memory References (Count)
system.timingCpu1.numCycles               19999999999                       # Number of cpu cycles simulated (Cycle)
system.timingCpu1.numWorkItemsStarted               0                       # Number of work items this cpu started (Count)
system.timingCpu1.numWorkItemsCompleted             0                       # Number of work items this cpu completed (Count)
system.timingCpu1.exec_context.thread_0.numInsts   6255729913                       # Number of instructions committed (Count)
system.timingCpu1.exec_context.thread_0.numOps  10657867083                       # Number of ops (including micro ops) committed (Count)
system.timingCpu1.exec_context.thread_0.numIntAluAccesses  10474096999                       # Number of integer alu accesses (Count)
system.timingCpu1.exec_context.thread_0.numFpAluAccesses      7870491                       # Number of float alu accesses (Count)
system.timingCpu1.exec_context.thread_0.numVecAluAccesses            0                       # Number of vector alu accesses (Count)
system.timingCpu1.exec_context.thread_0.numCallsReturns      5832688                       # Number of times a function call or return occured (Count)
system.timingCpu1.exec_context.thread_0.numCondCtrlInsts   1430617294                       # Number of instructions that are conditional controls (Count)
system.timingCpu1.exec_context.thread_0.numIntInsts  10474096999                       # Number of integer instructions (Count)
system.timingCpu1.exec_context.thread_0.numFpInsts      7870491                       # Number of float instructions (Count)
system.timingCpu1.exec_context.thread_0.numVecInsts            0                       # Number of vector instructions (Count)
system.timingCpu1.exec_context.thread_0.numIntRegReads  12831501319                       # Number of times the integer registers were read (Count)
system.timingCpu1.exec_context.thread_0.numIntRegWrites   7079054099                       # Number of times the integer registers were written (Count)
system.timingCpu1.exec_context.thread_0.numFpRegReads     12980257                       # Number of times the floating registers were read (Count)
system.timingCpu1.exec_context.thread_0.numFpRegWrites      6594725                       # Number of times the floating registers were written (Count)
system.timingCpu1.exec_context.thread_0.numVecRegReads            0                       # Number of times the vector registers were read (Count)
system.timingCpu1.exec_context.thread_0.numVecRegWrites            0                       # Number of times the vector registers were written (Count)
system.timingCpu1.exec_context.thread_0.numVecPredRegReads            0                       # Number of times the predicate registers were read (Count)
system.timingCpu1.exec_context.thread_0.numVecPredRegWrites            0                       # Number of times the predicate registers were written (Count)
system.timingCpu1.exec_context.thread_0.numCCRegReads  10227655278                       # Number of times the CC registers were read (Count)
system.timingCpu1.exec_context.thread_0.numCCRegWrites   5428509361                       # Number of times the CC registers were written (Count)
system.timingCpu1.exec_context.thread_0.numMiscRegReads   4064938866                       # Number of times the Misc registers were read (Count)
system.timingCpu1.exec_context.thread_0.numMiscRegWrites       226589                       # Number of times the Misc registers were written (Count)
system.timingCpu1.exec_context.thread_0.numMemRefs   1075717837                       # Number of memory refs (Count)
system.timingCpu1.exec_context.thread_0.numLoadInsts    888777201                       # Number of load instructions (Count)
system.timingCpu1.exec_context.thread_0.numStoreInsts    186940636                       # Number of store instructions (Count)
system.timingCpu1.exec_context.thread_0.numIdleCycles 58937765.997042                       # Number of idle cycles (Cycle)
system.timingCpu1.exec_context.thread_0.numBusyCycles 19941062233.002956                       # Number of busy cycles (Cycle)
system.timingCpu1.exec_context.thread_0.notIdleFraction     0.997053                       # Percentage of non-idle cycles (Ratio)
system.timingCpu1.exec_context.thread_0.idleFraction     0.002947                       # Percentage of idle cycles (Ratio)
system.timingCpu1.exec_context.thread_0.numBranches   1496159901                       # Number of branches fetched (Count)
system.timingCpu1.exec_context.thread_0.statExecutedInstType::No_OpClass    177379846      1.66%      1.66% # Class of executed instruction. (Count)
system.timingCpu1.exec_context.thread_0.statExecutedInstType::IntAlu   9400596404     88.20%     89.87% # Class of executed instruction. (Count)
system.timingCpu1.exec_context.thread_0.statExecutedInstType::IntMult       193803      0.00%     89.87% # Class of executed instruction. (Count)
system.timingCpu1.exec_context.thread_0.statExecutedInstType::IntDiv       232347      0.00%     89.87% # Class of executed instruction. (Count)
system.timingCpu1.exec_context.thread_0.statExecutedInstType::FloatAdd         3586      0.00%     89.87% # Class of executed instruction. (Count)
system.timingCpu1.exec_context.thread_0.statExecutedInstType::FloatCmp            0      0.00%     89.87% # Class of executed instruction. (Count)
system.timingCpu1.exec_context.thread_0.statExecutedInstType::FloatCvt          624      0.00%     89.87% # Class of executed instruction. (Count)
system.timingCpu1.exec_context.thread_0.statExecutedInstType::FloatMult            0      0.00%     89.87% # Class of executed instruction. (Count)
system.timingCpu1.exec_context.thread_0.statExecutedInstType::FloatMultAcc            0      0.00%     89.87% # Class of executed instruction. (Count)
system.timingCpu1.exec_context.thread_0.statExecutedInstType::FloatDiv            0      0.00%     89.87% # Class of executed instruction. (Count)
system.timingCpu1.exec_context.thread_0.statExecutedInstType::FloatMisc            0      0.00%     89.87% # Class of executed instruction. (Count)
system.timingCpu1.exec_context.thread_0.statExecutedInstType::FloatSqrt            0      0.00%     89.87% # Class of executed instruction. (Count)
system.timingCpu1.exec_context.thread_0.statExecutedInstType::SimdAdd      1573078      0.01%     89.89% # Class of executed instruction. (Count)
system.timingCpu1.exec_context.thread_0.statExecutedInstType::SimdAddAcc            0      0.00%     89.89% # Class of executed instruction. (Count)
system.timingCpu1.exec_context.thread_0.statExecutedInstType::SimdAlu        23036      0.00%     89.89% # Class of executed instruction. (Count)
system.timingCpu1.exec_context.thread_0.statExecutedInstType::SimdCmp         1132      0.00%     89.89% # Class of executed instruction. (Count)
system.timingCpu1.exec_context.thread_0.statExecutedInstType::SimdCvt       541046      0.01%     89.89% # Class of executed instruction. (Count)
system.timingCpu1.exec_context.thread_0.statExecutedInstType::SimdMisc      1081629      0.01%     89.90% # Class of executed instruction. (Count)
system.timingCpu1.exec_context.thread_0.statExecutedInstType::SimdMult            0      0.00%     89.90% # Class of executed instruction. (Count)
system.timingCpu1.exec_context.thread_0.statExecutedInstType::SimdMultAcc            0      0.00%     89.90% # Class of executed instruction. (Count)
system.timingCpu1.exec_context.thread_0.statExecutedInstType::SimdShift       524461      0.00%     89.91% # Class of executed instruction. (Count)
system.timingCpu1.exec_context.thread_0.statExecutedInstType::SimdShiftAcc            0      0.00%     89.91% # Class of executed instruction. (Count)
system.timingCpu1.exec_context.thread_0.statExecutedInstType::SimdDiv            0      0.00%     89.91% # Class of executed instruction. (Count)
system.timingCpu1.exec_context.thread_0.statExecutedInstType::SimdSqrt            0      0.00%     89.91% # Class of executed instruction. (Count)
system.timingCpu1.exec_context.thread_0.statExecutedInstType::SimdFloatAdd            0      0.00%     89.91% # Class of executed instruction. (Count)
system.timingCpu1.exec_context.thread_0.statExecutedInstType::SimdFloatAlu            0      0.00%     89.91% # Class of executed instruction. (Count)
system.timingCpu1.exec_context.thread_0.statExecutedInstType::SimdFloatCmp            0      0.00%     89.91% # Class of executed instruction. (Count)
system.timingCpu1.exec_context.thread_0.statExecutedInstType::SimdFloatCvt            3      0.00%     89.91% # Class of executed instruction. (Count)
system.timingCpu1.exec_context.thread_0.statExecutedInstType::SimdFloatDiv            1      0.00%     89.91% # Class of executed instruction. (Count)
system.timingCpu1.exec_context.thread_0.statExecutedInstType::SimdFloatMisc            0      0.00%     89.91% # Class of executed instruction. (Count)
system.timingCpu1.exec_context.thread_0.statExecutedInstType::SimdFloatMult            0      0.00%     89.91% # Class of executed instruction. (Count)
system.timingCpu1.exec_context.thread_0.statExecutedInstType::SimdFloatMultAcc            0      0.00%     89.91% # Class of executed instruction. (Count)
system.timingCpu1.exec_context.thread_0.statExecutedInstType::SimdFloatSqrt            0      0.00%     89.91% # Class of executed instruction. (Count)
system.timingCpu1.exec_context.thread_0.statExecutedInstType::SimdReduceAdd            0      0.00%     89.91% # Class of executed instruction. (Count)
system.timingCpu1.exec_context.thread_0.statExecutedInstType::SimdReduceAlu            0      0.00%     89.91% # Class of executed instruction. (Count)
system.timingCpu1.exec_context.thread_0.statExecutedInstType::SimdReduceCmp            0      0.00%     89.91% # Class of executed instruction. (Count)
system.timingCpu1.exec_context.thread_0.statExecutedInstType::SimdFloatReduceAdd            0      0.00%     89.91% # Class of executed instruction. (Count)
system.timingCpu1.exec_context.thread_0.statExecutedInstType::SimdFloatReduceCmp            0      0.00%     89.91% # Class of executed instruction. (Count)
system.timingCpu1.exec_context.thread_0.statExecutedInstType::SimdAes            0      0.00%     89.91% # Class of executed instruction. (Count)
system.timingCpu1.exec_context.thread_0.statExecutedInstType::SimdAesMix            0      0.00%     89.91% # Class of executed instruction. (Count)
system.timingCpu1.exec_context.thread_0.statExecutedInstType::SimdSha1Hash            0      0.00%     89.91% # Class of executed instruction. (Count)
system.timingCpu1.exec_context.thread_0.statExecutedInstType::SimdSha1Hash2            0      0.00%     89.91% # Class of executed instruction. (Count)
system.timingCpu1.exec_context.thread_0.statExecutedInstType::SimdSha256Hash            0      0.00%     89.91% # Class of executed instruction. (Count)
system.timingCpu1.exec_context.thread_0.statExecutedInstType::SimdSha256Hash2            0      0.00%     89.91% # Class of executed instruction. (Count)
system.timingCpu1.exec_context.thread_0.statExecutedInstType::SimdShaSigma2            0      0.00%     89.91% # Class of executed instruction. (Count)
system.timingCpu1.exec_context.thread_0.statExecutedInstType::SimdShaSigma3            0      0.00%     89.91% # Class of executed instruction. (Count)
system.timingCpu1.exec_context.thread_0.statExecutedInstType::SimdPredAlu            0      0.00%     89.91% # Class of executed instruction. (Count)
system.timingCpu1.exec_context.thread_0.statExecutedInstType::MemRead    886979025      8.32%     98.23% # Class of executed instruction. (Count)
system.timingCpu1.exec_context.thread_0.statExecutedInstType::MemWrite    185675403      1.74%     99.97% # Class of executed instruction. (Count)
system.timingCpu1.exec_context.thread_0.statExecutedInstType::FloatMemRead      1798176      0.02%     99.99% # Class of executed instruction. (Count)
system.timingCpu1.exec_context.thread_0.statExecutedInstType::FloatMemWrite      1265233      0.01%    100.00% # Class of executed instruction. (Count)
system.timingCpu1.exec_context.thread_0.statExecutedInstType::IprAccess            0      0.00%    100.00% # Class of executed instruction. (Count)
system.timingCpu1.exec_context.thread_0.statExecutedInstType::InstPrefetch            0      0.00%    100.00% # Class of executed instruction. (Count)
system.timingCpu1.exec_context.thread_0.statExecutedInstType::total  10657868833                       # Class of executed instruction. (Count)
system.timingCpu1.mmu.dtb.rdAccesses        894281253                       # TLB accesses on read requests (Count)
system.timingCpu1.mmu.dtb.wrAccesses        187277835                       # TLB accesses on write requests (Count)
system.timingCpu1.mmu.dtb.rdMisses            5441605                       # TLB misses on read requests (Count)
system.timingCpu1.mmu.dtb.wrMisses             272723                       # TLB misses on write requests (Count)
system.timingCpu1.mmu.dtb.walker.power_state.pwrStateResidencyTicks::UNDEFINED 161880572984500                       # Cumulative time (in ticks) in various power states (Tick)
system.timingCpu1.mmu.itb.rdAccesses                0                       # TLB accesses on read requests (Count)
system.timingCpu1.mmu.itb.wrAccesses       7267429053                       # TLB accesses on write requests (Count)
system.timingCpu1.mmu.itb.rdMisses                  0                       # TLB misses on read requests (Count)
system.timingCpu1.mmu.itb.wrMisses              12896                       # TLB misses on write requests (Count)
system.timingCpu1.mmu.itb.walker.power_state.pwrStateResidencyTicks::UNDEFINED 161880572984500                       # Cumulative time (in ticks) in various power states (Tick)
system.timingCpu1.power_state.numTransitions           30                       # Number of power state transitions (Count)
system.timingCpu1.power_state.ticksClkGated::samples           15                       # Distribution of time spent in the clock gated state (Tick)
system.timingCpu1.power_state.ticksClkGated::mean    982296100                       # Distribution of time spent in the clock gated state (Tick)
system.timingCpu1.power_state.ticksClkGated::stdev 38940401.087845                       # Distribution of time spent in the clock gated state (Tick)
system.timingCpu1.power_state.ticksClkGated::1000-5e+10           15    100.00%    100.00% # Distribution of time spent in the clock gated state (Tick)
system.timingCpu1.power_state.ticksClkGated::min_value    872818000                       # Distribution of time spent in the clock gated state (Tick)
system.timingCpu1.power_state.ticksClkGated::max_value    998171750                       # Distribution of time spent in the clock gated state (Tick)
system.timingCpu1.power_state.ticksClkGated::total           15                       # Distribution of time spent in the clock gated state (Tick)
system.timingCpu1.power_state.pwrStateResidencyTicks::ON 2994740880250                       # Cumulative time (in ticks) in various power states (Tick)
system.timingCpu1.power_state.pwrStateResidencyTicks::CLK_GATED  14734441500                       # Cumulative time (in ticks) in various power states (Tick)
system.timingCpu1.power_state.pwrStateResidencyTicks::OFF 158871097662750                       # Cumulative time (in ticks) in various power states (Tick)
system.timingCpu1.thread_0.numInsts                 0                       # Number of Instructions committed (Count)
system.timingCpu1.thread_0.numOps                   0                       # Number of Ops committed (Count)
system.timingCpu1.thread_0.numMemRefs               0                       # Number of Memory References (Count)
system.workload.inst.arm                            0                       # number of arm instructions executed (Count)
system.workload.inst.quiesce                        0                       # number of quiesce instructions executed (Count)

---------- End Simulation Statistics   ----------
