
---------- Begin Simulation Statistics ----------
simSeconds                                   0.020001                       # Number of seconds simulated (Second)
simTicks                                  20000757000                       # Number of ticks simulated (Tick)
finalTick                                 20000757000                       # Number of ticks from beginning of simulation (restored from checkpoints and never reset) (Tick)
simFreq                                  1000000000000                       # The number of ticks per simulated second ((Tick/Second))
hostSeconds                                    123.21                       # Real time elapsed on the host (Second)
hostTickRate                                162332192                       # The number of ticks simulated per host second (ticks/s) ((Tick/Second))
hostMemory                                    5107276                       # Number of bytes of host memory used (Byte)
system.clk_domain.clock                           250                       # Clock period in ticks (Tick)
system.clk_domain.voltage_domain.voltage            1                       # Voltage in Volts (Volt)
system.far_mem_ctrl.avgPriority_writebacks::samples   2579621.00                       # Average QoS priority value for accepted requests (Count)
system.far_mem_ctrl.priorityMinLatency   0.000000017492                       # per QoS priority minimum request to response latency (Second)
system.far_mem_ctrl.priorityMaxLatency   0.000130925652                       # per QoS priority maximum request to response latency (Second)
system.far_mem_ctrl.numReadWriteTurnArounds            0                       # Number of turnarounds from READ to WRITE (Count)
system.far_mem_ctrl.numWriteReadTurnArounds            0                       # Number of turnarounds from WRITE to READ (Count)
system.far_mem_ctrl.numStayReadState          3742485                       # Number of times bus staying in READ state (Count)
system.far_mem_ctrl.numStayWriteState               0                       # Number of times bus staying in WRITE state (Count)
system.far_mem_ctrl.readReqs                        0                       # Number of read requests accepted (Count)
system.far_mem_ctrl.writeReqs                 3563879                       # Number of write requests accepted (Count)
system.far_mem_ctrl.readBursts                      0                       # Number of controller read bursts, including those serviced by the write queue (Count)
system.far_mem_ctrl.writeBursts               3563879                       # Number of controller write bursts, including those merged in the write queue (Count)
system.far_mem_ctrl.servicedByWrQ                   0                       # Number of controller read bursts serviced by the write queue (Count)
system.far_mem_ctrl.mergedWrBursts             984258                       # Number of controller write bursts merged with an existing one (Count)
system.far_mem_ctrl.avgRdQLen                    0.00                       # Average read queue length when enqueuing ((Count/Tick))
system.far_mem_ctrl.avgWrQLen                   68.32                       # Average write queue length when enqueuing ((Count/Tick))
system.far_mem_ctrl.numRdRetry                      0                       # Number of times read queue was full causing retry (Count)
system.far_mem_ctrl.numWrRetry                 231639                       # Number of times write queue was full causing retry (Count)
system.far_mem_ctrl.readPktSize::0                  0                       # Read request sizes (log2) (Count)
system.far_mem_ctrl.readPktSize::1                  0                       # Read request sizes (log2) (Count)
system.far_mem_ctrl.readPktSize::2                  0                       # Read request sizes (log2) (Count)
system.far_mem_ctrl.readPktSize::3                  0                       # Read request sizes (log2) (Count)
system.far_mem_ctrl.readPktSize::4                  0                       # Read request sizes (log2) (Count)
system.far_mem_ctrl.readPktSize::5                  0                       # Read request sizes (log2) (Count)
system.far_mem_ctrl.readPktSize::6                  0                       # Read request sizes (log2) (Count)
system.far_mem_ctrl.writePktSize::0                 0                       # Write request sizes (log2) (Count)
system.far_mem_ctrl.writePktSize::1                 0                       # Write request sizes (log2) (Count)
system.far_mem_ctrl.writePktSize::2                 0                       # Write request sizes (log2) (Count)
system.far_mem_ctrl.writePktSize::3                 0                       # Write request sizes (log2) (Count)
system.far_mem_ctrl.writePktSize::4                 0                       # Write request sizes (log2) (Count)
system.far_mem_ctrl.writePktSize::5                 0                       # Write request sizes (log2) (Count)
system.far_mem_ctrl.writePktSize::6           3563879                       # Write request sizes (log2) (Count)
system.far_mem_ctrl.rdQLenPdf::0                    0                       # What read queue length does an incoming req see (Count)
system.far_mem_ctrl.rdQLenPdf::1                    0                       # What read queue length does an incoming req see (Count)
system.far_mem_ctrl.rdQLenPdf::2                    0                       # What read queue length does an incoming req see (Count)
system.far_mem_ctrl.rdQLenPdf::3                    0                       # What read queue length does an incoming req see (Count)
system.far_mem_ctrl.rdQLenPdf::4                    0                       # What read queue length does an incoming req see (Count)
system.far_mem_ctrl.rdQLenPdf::5                    0                       # What read queue length does an incoming req see (Count)
system.far_mem_ctrl.rdQLenPdf::6                    0                       # What read queue length does an incoming req see (Count)
system.far_mem_ctrl.rdQLenPdf::7                    0                       # What read queue length does an incoming req see (Count)
system.far_mem_ctrl.rdQLenPdf::8                    0                       # What read queue length does an incoming req see (Count)
system.far_mem_ctrl.rdQLenPdf::9                    0                       # What read queue length does an incoming req see (Count)
system.far_mem_ctrl.rdQLenPdf::10                   0                       # What read queue length does an incoming req see (Count)
system.far_mem_ctrl.rdQLenPdf::11                   0                       # What read queue length does an incoming req see (Count)
system.far_mem_ctrl.rdQLenPdf::12                   0                       # What read queue length does an incoming req see (Count)
system.far_mem_ctrl.rdQLenPdf::13                   0                       # What read queue length does an incoming req see (Count)
system.far_mem_ctrl.rdQLenPdf::14                   0                       # What read queue length does an incoming req see (Count)
system.far_mem_ctrl.rdQLenPdf::15                   0                       # What read queue length does an incoming req see (Count)
system.far_mem_ctrl.rdQLenPdf::16                   0                       # What read queue length does an incoming req see (Count)
system.far_mem_ctrl.rdQLenPdf::17                   0                       # What read queue length does an incoming req see (Count)
system.far_mem_ctrl.rdQLenPdf::18                   0                       # What read queue length does an incoming req see (Count)
system.far_mem_ctrl.rdQLenPdf::19                   0                       # What read queue length does an incoming req see (Count)
system.far_mem_ctrl.rdQLenPdf::20                   0                       # What read queue length does an incoming req see (Count)
system.far_mem_ctrl.rdQLenPdf::21                   0                       # What read queue length does an incoming req see (Count)
system.far_mem_ctrl.rdQLenPdf::22                   0                       # What read queue length does an incoming req see (Count)
system.far_mem_ctrl.rdQLenPdf::23                   0                       # What read queue length does an incoming req see (Count)
system.far_mem_ctrl.rdQLenPdf::24                   0                       # What read queue length does an incoming req see (Count)
system.far_mem_ctrl.rdQLenPdf::25                   0                       # What read queue length does an incoming req see (Count)
system.far_mem_ctrl.rdQLenPdf::26                   0                       # What read queue length does an incoming req see (Count)
system.far_mem_ctrl.rdQLenPdf::27                   0                       # What read queue length does an incoming req see (Count)
system.far_mem_ctrl.rdQLenPdf::28                   0                       # What read queue length does an incoming req see (Count)
system.far_mem_ctrl.rdQLenPdf::29                   0                       # What read queue length does an incoming req see (Count)
system.far_mem_ctrl.rdQLenPdf::30                   0                       # What read queue length does an incoming req see (Count)
system.far_mem_ctrl.rdQLenPdf::31                   0                       # What read queue length does an incoming req see (Count)
system.far_mem_ctrl.rdQLenPdf::32                   0                       # What read queue length does an incoming req see (Count)
system.far_mem_ctrl.rdQLenPdf::33                   0                       # What read queue length does an incoming req see (Count)
system.far_mem_ctrl.rdQLenPdf::34                   0                       # What read queue length does an incoming req see (Count)
system.far_mem_ctrl.rdQLenPdf::35                   0                       # What read queue length does an incoming req see (Count)
system.far_mem_ctrl.rdQLenPdf::36                   0                       # What read queue length does an incoming req see (Count)
system.far_mem_ctrl.rdQLenPdf::37                   0                       # What read queue length does an incoming req see (Count)
system.far_mem_ctrl.rdQLenPdf::38                   0                       # What read queue length does an incoming req see (Count)
system.far_mem_ctrl.rdQLenPdf::39                   0                       # What read queue length does an incoming req see (Count)
system.far_mem_ctrl.rdQLenPdf::40                   0                       # What read queue length does an incoming req see (Count)
system.far_mem_ctrl.rdQLenPdf::41                   0                       # What read queue length does an incoming req see (Count)
system.far_mem_ctrl.rdQLenPdf::42                   0                       # What read queue length does an incoming req see (Count)
system.far_mem_ctrl.rdQLenPdf::43                   0                       # What read queue length does an incoming req see (Count)
system.far_mem_ctrl.rdQLenPdf::44                   0                       # What read queue length does an incoming req see (Count)
system.far_mem_ctrl.rdQLenPdf::45                   0                       # What read queue length does an incoming req see (Count)
system.far_mem_ctrl.rdQLenPdf::46                   0                       # What read queue length does an incoming req see (Count)
system.far_mem_ctrl.rdQLenPdf::47                   0                       # What read queue length does an incoming req see (Count)
system.far_mem_ctrl.rdQLenPdf::48                   0                       # What read queue length does an incoming req see (Count)
system.far_mem_ctrl.rdQLenPdf::49                   0                       # What read queue length does an incoming req see (Count)
system.far_mem_ctrl.rdQLenPdf::50                   0                       # What read queue length does an incoming req see (Count)
system.far_mem_ctrl.rdQLenPdf::51                   0                       # What read queue length does an incoming req see (Count)
system.far_mem_ctrl.rdQLenPdf::52                   0                       # What read queue length does an incoming req see (Count)
system.far_mem_ctrl.rdQLenPdf::53                   0                       # What read queue length does an incoming req see (Count)
system.far_mem_ctrl.rdQLenPdf::54                   0                       # What read queue length does an incoming req see (Count)
system.far_mem_ctrl.rdQLenPdf::55                   0                       # What read queue length does an incoming req see (Count)
system.far_mem_ctrl.rdQLenPdf::56                   0                       # What read queue length does an incoming req see (Count)
system.far_mem_ctrl.rdQLenPdf::57                   0                       # What read queue length does an incoming req see (Count)
system.far_mem_ctrl.rdQLenPdf::58                   0                       # What read queue length does an incoming req see (Count)
system.far_mem_ctrl.rdQLenPdf::59                   0                       # What read queue length does an incoming req see (Count)
system.far_mem_ctrl.rdQLenPdf::60                   0                       # What read queue length does an incoming req see (Count)
system.far_mem_ctrl.rdQLenPdf::61                   0                       # What read queue length does an incoming req see (Count)
system.far_mem_ctrl.rdQLenPdf::62                   0                       # What read queue length does an incoming req see (Count)
system.far_mem_ctrl.rdQLenPdf::63                   0                       # What read queue length does an incoming req see (Count)
system.far_mem_ctrl.wrQLenPdf::0                    1                       # What write queue length does an incoming req see (Count)
system.far_mem_ctrl.wrQLenPdf::1                    1                       # What write queue length does an incoming req see (Count)
system.far_mem_ctrl.wrQLenPdf::2                    1                       # What write queue length does an incoming req see (Count)
system.far_mem_ctrl.wrQLenPdf::3                    1                       # What write queue length does an incoming req see (Count)
system.far_mem_ctrl.wrQLenPdf::4                    1                       # What write queue length does an incoming req see (Count)
system.far_mem_ctrl.wrQLenPdf::5                    1                       # What write queue length does an incoming req see (Count)
system.far_mem_ctrl.wrQLenPdf::6                    1                       # What write queue length does an incoming req see (Count)
system.far_mem_ctrl.wrQLenPdf::7                    1                       # What write queue length does an incoming req see (Count)
system.far_mem_ctrl.wrQLenPdf::8                    1                       # What write queue length does an incoming req see (Count)
system.far_mem_ctrl.wrQLenPdf::9                    1                       # What write queue length does an incoming req see (Count)
system.far_mem_ctrl.wrQLenPdf::10                   1                       # What write queue length does an incoming req see (Count)
system.far_mem_ctrl.wrQLenPdf::11                   1                       # What write queue length does an incoming req see (Count)
system.far_mem_ctrl.wrQLenPdf::12                   1                       # What write queue length does an incoming req see (Count)
system.far_mem_ctrl.wrQLenPdf::13                   1                       # What write queue length does an incoming req see (Count)
system.far_mem_ctrl.wrQLenPdf::14                   1                       # What write queue length does an incoming req see (Count)
system.far_mem_ctrl.wrQLenPdf::15                   1                       # What write queue length does an incoming req see (Count)
system.far_mem_ctrl.wrQLenPdf::16                   1                       # What write queue length does an incoming req see (Count)
system.far_mem_ctrl.wrQLenPdf::17                   1                       # What write queue length does an incoming req see (Count)
system.far_mem_ctrl.wrQLenPdf::18                   1                       # What write queue length does an incoming req see (Count)
system.far_mem_ctrl.wrQLenPdf::19                   1                       # What write queue length does an incoming req see (Count)
system.far_mem_ctrl.wrQLenPdf::20                   1                       # What write queue length does an incoming req see (Count)
system.far_mem_ctrl.wrQLenPdf::21                   1                       # What write queue length does an incoming req see (Count)
system.far_mem_ctrl.wrQLenPdf::22                   1                       # What write queue length does an incoming req see (Count)
system.far_mem_ctrl.wrQLenPdf::23                   1                       # What write queue length does an incoming req see (Count)
system.far_mem_ctrl.wrQLenPdf::24                   1                       # What write queue length does an incoming req see (Count)
system.far_mem_ctrl.wrQLenPdf::25                   1                       # What write queue length does an incoming req see (Count)
system.far_mem_ctrl.wrQLenPdf::26                   1                       # What write queue length does an incoming req see (Count)
system.far_mem_ctrl.wrQLenPdf::27                   1                       # What write queue length does an incoming req see (Count)
system.far_mem_ctrl.wrQLenPdf::28                   1                       # What write queue length does an incoming req see (Count)
system.far_mem_ctrl.wrQLenPdf::29                   1                       # What write queue length does an incoming req see (Count)
system.far_mem_ctrl.wrQLenPdf::30                   1                       # What write queue length does an incoming req see (Count)
system.far_mem_ctrl.wrQLenPdf::31                   1                       # What write queue length does an incoming req see (Count)
system.far_mem_ctrl.wrQLenPdf::32                   1                       # What write queue length does an incoming req see (Count)
system.far_mem_ctrl.wrQLenPdf::33                   1                       # What write queue length does an incoming req see (Count)
system.far_mem_ctrl.wrQLenPdf::34                   1                       # What write queue length does an incoming req see (Count)
system.far_mem_ctrl.wrQLenPdf::35                   1                       # What write queue length does an incoming req see (Count)
system.far_mem_ctrl.wrQLenPdf::36                   1                       # What write queue length does an incoming req see (Count)
system.far_mem_ctrl.wrQLenPdf::37                   1                       # What write queue length does an incoming req see (Count)
system.far_mem_ctrl.wrQLenPdf::38                   1                       # What write queue length does an incoming req see (Count)
system.far_mem_ctrl.wrQLenPdf::39                   1                       # What write queue length does an incoming req see (Count)
system.far_mem_ctrl.wrQLenPdf::40                   1                       # What write queue length does an incoming req see (Count)
system.far_mem_ctrl.wrQLenPdf::41                   1                       # What write queue length does an incoming req see (Count)
system.far_mem_ctrl.wrQLenPdf::42                   1                       # What write queue length does an incoming req see (Count)
system.far_mem_ctrl.wrQLenPdf::43                   1                       # What write queue length does an incoming req see (Count)
system.far_mem_ctrl.wrQLenPdf::44                   1                       # What write queue length does an incoming req see (Count)
system.far_mem_ctrl.wrQLenPdf::45                   1                       # What write queue length does an incoming req see (Count)
system.far_mem_ctrl.wrQLenPdf::46                   1                       # What write queue length does an incoming req see (Count)
system.far_mem_ctrl.wrQLenPdf::47               30486                       # What write queue length does an incoming req see (Count)
system.far_mem_ctrl.wrQLenPdf::48               54331                       # What write queue length does an incoming req see (Count)
system.far_mem_ctrl.wrQLenPdf::49               62974                       # What write queue length does an incoming req see (Count)
system.far_mem_ctrl.wrQLenPdf::50               68326                       # What write queue length does an incoming req see (Count)
system.far_mem_ctrl.wrQLenPdf::51               72698                       # What write queue length does an incoming req see (Count)
system.far_mem_ctrl.wrQLenPdf::52               77290                       # What write queue length does an incoming req see (Count)
system.far_mem_ctrl.wrQLenPdf::53               82027                       # What write queue length does an incoming req see (Count)
system.far_mem_ctrl.wrQLenPdf::54               85420                       # What write queue length does an incoming req see (Count)
system.far_mem_ctrl.wrQLenPdf::55               89120                       # What write queue length does an incoming req see (Count)
system.far_mem_ctrl.wrQLenPdf::56               92979                       # What write queue length does an incoming req see (Count)
system.far_mem_ctrl.wrQLenPdf::57              100091                       # What write queue length does an incoming req see (Count)
system.far_mem_ctrl.wrQLenPdf::58              112653                       # What write queue length does an incoming req see (Count)
system.far_mem_ctrl.wrQLenPdf::59               96092                       # What write queue length does an incoming req see (Count)
system.far_mem_ctrl.wrQLenPdf::60               84349                       # What write queue length does an incoming req see (Count)
system.far_mem_ctrl.wrQLenPdf::61               70768                       # What write queue length does an incoming req see (Count)
system.far_mem_ctrl.wrQLenPdf::62               66926                       # What write queue length does an incoming req see (Count)
system.far_mem_ctrl.wrQLenPdf::63               64158                       # What write queue length does an incoming req see (Count)
system.far_mem_ctrl.wrQLenPdf::64               62370                       # What write queue length does an incoming req see (Count)
system.far_mem_ctrl.wrQLenPdf::65               31658                       # What write queue length does an incoming req see (Count)
system.far_mem_ctrl.wrQLenPdf::66               30298                       # What write queue length does an incoming req see (Count)
system.far_mem_ctrl.wrQLenPdf::67               29592                       # What write queue length does an incoming req see (Count)
system.far_mem_ctrl.wrQLenPdf::68               28577                       # What write queue length does an incoming req see (Count)
system.far_mem_ctrl.wrQLenPdf::69               27718                       # What write queue length does an incoming req see (Count)
system.far_mem_ctrl.wrQLenPdf::70               27046                       # What write queue length does an incoming req see (Count)
system.far_mem_ctrl.wrQLenPdf::71               26155                       # What write queue length does an incoming req see (Count)
system.far_mem_ctrl.wrQLenPdf::72               25941                       # What write queue length does an incoming req see (Count)
system.far_mem_ctrl.wrQLenPdf::73               25187                       # What write queue length does an incoming req see (Count)
system.far_mem_ctrl.wrQLenPdf::74               24898                       # What write queue length does an incoming req see (Count)
system.far_mem_ctrl.wrQLenPdf::75               24593                       # What write queue length does an incoming req see (Count)
system.far_mem_ctrl.wrQLenPdf::76               23903                       # What write queue length does an incoming req see (Count)
system.far_mem_ctrl.wrQLenPdf::77               23744                       # What write queue length does an incoming req see (Count)
system.far_mem_ctrl.wrQLenPdf::78               23348                       # What write queue length does an incoming req see (Count)
system.far_mem_ctrl.wrQLenPdf::79               22954                       # What write queue length does an incoming req see (Count)
system.far_mem_ctrl.wrQLenPdf::80               22458                       # What write queue length does an incoming req see (Count)
system.far_mem_ctrl.wrQLenPdf::81               21943                       # What write queue length does an incoming req see (Count)
system.far_mem_ctrl.wrQLenPdf::82               21723                       # What write queue length does an incoming req see (Count)
system.far_mem_ctrl.wrQLenPdf::83               21140                       # What write queue length does an incoming req see (Count)
system.far_mem_ctrl.wrQLenPdf::84               20725                       # What write queue length does an incoming req see (Count)
system.far_mem_ctrl.wrQLenPdf::85               20494                       # What write queue length does an incoming req see (Count)
system.far_mem_ctrl.wrQLenPdf::86               20212                       # What write queue length does an incoming req see (Count)
system.far_mem_ctrl.wrQLenPdf::87               19893                       # What write queue length does an incoming req see (Count)
system.far_mem_ctrl.wrQLenPdf::88               19726                       # What write queue length does an incoming req see (Count)
system.far_mem_ctrl.wrQLenPdf::89               18821                       # What write queue length does an incoming req see (Count)
system.far_mem_ctrl.wrQLenPdf::90               18570                       # What write queue length does an incoming req see (Count)
system.far_mem_ctrl.wrQLenPdf::91               18393                       # What write queue length does an incoming req see (Count)
system.far_mem_ctrl.wrQLenPdf::92               18286                       # What write queue length does an incoming req see (Count)
system.far_mem_ctrl.wrQLenPdf::93               17777                       # What write queue length does an incoming req see (Count)
system.far_mem_ctrl.wrQLenPdf::94               17532                       # What write queue length does an incoming req see (Count)
system.far_mem_ctrl.wrQLenPdf::95               17271                       # What write queue length does an incoming req see (Count)
system.far_mem_ctrl.wrQLenPdf::96               16726                       # What write queue length does an incoming req see (Count)
system.far_mem_ctrl.wrQLenPdf::97               16527                       # What write queue length does an incoming req see (Count)
system.far_mem_ctrl.wrQLenPdf::98               16254                       # What write queue length does an incoming req see (Count)
system.far_mem_ctrl.wrQLenPdf::99               15958                       # What write queue length does an incoming req see (Count)
system.far_mem_ctrl.wrQLenPdf::100              15390                       # What write queue length does an incoming req see (Count)
system.far_mem_ctrl.wrQLenPdf::101              15277                       # What write queue length does an incoming req see (Count)
system.far_mem_ctrl.wrQLenPdf::102              14728                       # What write queue length does an incoming req see (Count)
system.far_mem_ctrl.wrQLenPdf::103              14640                       # What write queue length does an incoming req see (Count)
system.far_mem_ctrl.wrQLenPdf::104              14155                       # What write queue length does an incoming req see (Count)
system.far_mem_ctrl.wrQLenPdf::105              13697                       # What write queue length does an incoming req see (Count)
system.far_mem_ctrl.wrQLenPdf::106              13358                       # What write queue length does an incoming req see (Count)
system.far_mem_ctrl.wrQLenPdf::107              13100                       # What write queue length does an incoming req see (Count)
system.far_mem_ctrl.wrQLenPdf::108              12740                       # What write queue length does an incoming req see (Count)
system.far_mem_ctrl.wrQLenPdf::109              12479                       # What write queue length does an incoming req see (Count)
system.far_mem_ctrl.wrQLenPdf::110              12014                       # What write queue length does an incoming req see (Count)
system.far_mem_ctrl.wrQLenPdf::111              11847                       # What write queue length does an incoming req see (Count)
system.far_mem_ctrl.wrQLenPdf::112              11465                       # What write queue length does an incoming req see (Count)
system.far_mem_ctrl.wrQLenPdf::113              10895                       # What write queue length does an incoming req see (Count)
system.far_mem_ctrl.wrQLenPdf::114              10602                       # What write queue length does an incoming req see (Count)
system.far_mem_ctrl.wrQLenPdf::115              10177                       # What write queue length does an incoming req see (Count)
system.far_mem_ctrl.wrQLenPdf::116               9870                       # What write queue length does an incoming req see (Count)
system.far_mem_ctrl.wrQLenPdf::117               9534                       # What write queue length does an incoming req see (Count)
system.far_mem_ctrl.wrQLenPdf::118               9262                       # What write queue length does an incoming req see (Count)
system.far_mem_ctrl.wrQLenPdf::119               8562                       # What write queue length does an incoming req see (Count)
system.far_mem_ctrl.wrQLenPdf::120               8317                       # What write queue length does an incoming req see (Count)
system.far_mem_ctrl.wrQLenPdf::121               8023                       # What write queue length does an incoming req see (Count)
system.far_mem_ctrl.wrQLenPdf::122               7700                       # What write queue length does an incoming req see (Count)
system.far_mem_ctrl.wrQLenPdf::123               7519                       # What write queue length does an incoming req see (Count)
system.far_mem_ctrl.wrQLenPdf::124               8077                       # What write queue length does an incoming req see (Count)
system.far_mem_ctrl.wrQLenPdf::125               8033                       # What write queue length does an incoming req see (Count)
system.far_mem_ctrl.wrQLenPdf::126               7396                       # What write queue length does an incoming req see (Count)
system.far_mem_ctrl.wrQLenPdf::127             131618                       # What write queue length does an incoming req see (Count)
system.far_mem_ctrl.rdPerTurnAround::samples        30486                       # Reads before turning the bus around for writes (Count)
system.far_mem_ctrl.rdPerTurnAround::0          30486    100.00%    100.00% # Reads before turning the bus around for writes (Count)
system.far_mem_ctrl.rdPerTurnAround::total        30486                       # Reads before turning the bus around for writes (Count)
system.far_mem_ctrl.wrPerTurnAround::samples        30485                       # Writes before turning the bus around for reads (Count)
system.far_mem_ctrl.wrPerTurnAround::0          30485    100.00%    100.00% # Writes before turning the bus around for reads (Count)
system.far_mem_ctrl.wrPerTurnAround::total        30485                       # Writes before turning the bus around for reads (Count)
system.far_mem_ctrl.bytesReadWrQ                    0                       # Total number of bytes read from write queue (Byte)
system.far_mem_ctrl.bytesReadSys                    0                       # Total read bytes from the system interface side (Byte)
system.far_mem_ctrl.bytesWrittenSys         228088256                       # Total written bytes from the system interface side (Byte)
system.far_mem_ctrl.avgRdBWSys             0.00000000                       # Average system read bandwidth in Byte/s ((Byte/Second))
system.far_mem_ctrl.avgWrBWSys           11403981159.31311989                       # Average system write bandwidth in Byte/s ((Byte/Second))
system.far_mem_ctrl.totGap                20000680000                       # Total gap between requests (Tick)
system.far_mem_ctrl.avgGap                    5612.05                       # Average gap between requests ((Tick/Count))
system.far_mem_ctrl.requestorWriteBytes::writebacks    165090624                       # Per-requestor bytes write to memory (Byte)
system.far_mem_ctrl.requestorWriteRate::writebacks 8254218777.819258689880                       # Per-requestor bytes write to memory rate ((Byte/Second))
system.far_mem_ctrl.requestorWriteAccesses::writebacks      3563879                       # Per-requestor write serviced memory accesses (Count)
system.far_mem_ctrl.requestorWriteTotalLat::writebacks 1377965424083                       # Per-requestor write total memory access latency (Tick)
system.far_mem_ctrl.requestorWriteAvgLat::writebacks    386647.65                       # Per-requestor write average memory access latency ((Tick/Count))
system.far_mem_ctrl.dram.bytesWritten::writebacks    228088256                       # Number of bytes written to this memory (Byte)
system.far_mem_ctrl.dram.bytesWritten::total    228088256                       # Number of bytes written to this memory (Byte)
system.far_mem_ctrl.dram.numWrites::writebacks      3563879                       # Number of write requests responded to by this memory (Count)
system.far_mem_ctrl.dram.numWrites::total      3563879                       # Number of write requests responded to by this memory (Count)
system.far_mem_ctrl.dram.bwWrite::writebacks  11403981159                       # Write bandwidth from this memory ((Byte/Second))
system.far_mem_ctrl.dram.bwWrite::total   11403981159                       # Write bandwidth from this memory ((Byte/Second))
system.far_mem_ctrl.dram.bwTotal::writebacks  11403981159                       # Total bandwidth to/from this memory ((Byte/Second))
system.far_mem_ctrl.dram.bwTotal::total   11403981159                       # Total bandwidth to/from this memory ((Byte/Second))
system.far_mem_ctrl.dram.readBursts                 0                       # Number of DRAM read bursts (Count)
system.far_mem_ctrl.dram.writeBursts          2579541                       # Number of DRAM write bursts (Count)
system.far_mem_ctrl.dram.perBankRdBursts::0            0                       # Per bank write bursts (Count)
system.far_mem_ctrl.dram.perBankRdBursts::1            0                       # Per bank write bursts (Count)
system.far_mem_ctrl.dram.perBankRdBursts::2            0                       # Per bank write bursts (Count)
system.far_mem_ctrl.dram.perBankRdBursts::3            0                       # Per bank write bursts (Count)
system.far_mem_ctrl.dram.perBankRdBursts::4            0                       # Per bank write bursts (Count)
system.far_mem_ctrl.dram.perBankRdBursts::5            0                       # Per bank write bursts (Count)
system.far_mem_ctrl.dram.perBankRdBursts::6            0                       # Per bank write bursts (Count)
system.far_mem_ctrl.dram.perBankRdBursts::7            0                       # Per bank write bursts (Count)
system.far_mem_ctrl.dram.perBankRdBursts::8            0                       # Per bank write bursts (Count)
system.far_mem_ctrl.dram.perBankRdBursts::9            0                       # Per bank write bursts (Count)
system.far_mem_ctrl.dram.perBankRdBursts::10            0                       # Per bank write bursts (Count)
system.far_mem_ctrl.dram.perBankRdBursts::11            0                       # Per bank write bursts (Count)
system.far_mem_ctrl.dram.perBankRdBursts::12            0                       # Per bank write bursts (Count)
system.far_mem_ctrl.dram.perBankRdBursts::13            0                       # Per bank write bursts (Count)
system.far_mem_ctrl.dram.perBankRdBursts::14            0                       # Per bank write bursts (Count)
system.far_mem_ctrl.dram.perBankRdBursts::15            0                       # Per bank write bursts (Count)
system.far_mem_ctrl.dram.perBankRdBursts::16            0                       # Per bank write bursts (Count)
system.far_mem_ctrl.dram.perBankRdBursts::17            0                       # Per bank write bursts (Count)
system.far_mem_ctrl.dram.perBankRdBursts::18            0                       # Per bank write bursts (Count)
system.far_mem_ctrl.dram.perBankRdBursts::19            0                       # Per bank write bursts (Count)
system.far_mem_ctrl.dram.perBankRdBursts::20            0                       # Per bank write bursts (Count)
system.far_mem_ctrl.dram.perBankRdBursts::21            0                       # Per bank write bursts (Count)
system.far_mem_ctrl.dram.perBankRdBursts::22            0                       # Per bank write bursts (Count)
system.far_mem_ctrl.dram.perBankRdBursts::23            0                       # Per bank write bursts (Count)
system.far_mem_ctrl.dram.perBankRdBursts::24            0                       # Per bank write bursts (Count)
system.far_mem_ctrl.dram.perBankRdBursts::25            0                       # Per bank write bursts (Count)
system.far_mem_ctrl.dram.perBankRdBursts::26            0                       # Per bank write bursts (Count)
system.far_mem_ctrl.dram.perBankRdBursts::27            0                       # Per bank write bursts (Count)
system.far_mem_ctrl.dram.perBankRdBursts::28            0                       # Per bank write bursts (Count)
system.far_mem_ctrl.dram.perBankRdBursts::29            0                       # Per bank write bursts (Count)
system.far_mem_ctrl.dram.perBankRdBursts::30            0                       # Per bank write bursts (Count)
system.far_mem_ctrl.dram.perBankRdBursts::31            0                       # Per bank write bursts (Count)
system.far_mem_ctrl.dram.perBankWrBursts::0       109577                       # Per bank write bursts (Count)
system.far_mem_ctrl.dram.perBankWrBursts::1        79667                       # Per bank write bursts (Count)
system.far_mem_ctrl.dram.perBankWrBursts::2        79950                       # Per bank write bursts (Count)
system.far_mem_ctrl.dram.perBankWrBursts::3        79981                       # Per bank write bursts (Count)
system.far_mem_ctrl.dram.perBankWrBursts::4        79778                       # Per bank write bursts (Count)
system.far_mem_ctrl.dram.perBankWrBursts::5        79854                       # Per bank write bursts (Count)
system.far_mem_ctrl.dram.perBankWrBursts::6        79380                       # Per bank write bursts (Count)
system.far_mem_ctrl.dram.perBankWrBursts::7        79387                       # Per bank write bursts (Count)
system.far_mem_ctrl.dram.perBankWrBursts::8        79516                       # Per bank write bursts (Count)
system.far_mem_ctrl.dram.perBankWrBursts::9        79419                       # Per bank write bursts (Count)
system.far_mem_ctrl.dram.perBankWrBursts::10        79507                       # Per bank write bursts (Count)
system.far_mem_ctrl.dram.perBankWrBursts::11        79276                       # Per bank write bursts (Count)
system.far_mem_ctrl.dram.perBankWrBursts::12        79946                       # Per bank write bursts (Count)
system.far_mem_ctrl.dram.perBankWrBursts::13        79555                       # Per bank write bursts (Count)
system.far_mem_ctrl.dram.perBankWrBursts::14        79307                       # Per bank write bursts (Count)
system.far_mem_ctrl.dram.perBankWrBursts::15        80193                       # Per bank write bursts (Count)
system.far_mem_ctrl.dram.perBankWrBursts::16        79714                       # Per bank write bursts (Count)
system.far_mem_ctrl.dram.perBankWrBursts::17        79802                       # Per bank write bursts (Count)
system.far_mem_ctrl.dram.perBankWrBursts::18        79562                       # Per bank write bursts (Count)
system.far_mem_ctrl.dram.perBankWrBursts::19        79548                       # Per bank write bursts (Count)
system.far_mem_ctrl.dram.perBankWrBursts::20        79858                       # Per bank write bursts (Count)
system.far_mem_ctrl.dram.perBankWrBursts::21        79553                       # Per bank write bursts (Count)
system.far_mem_ctrl.dram.perBankWrBursts::22        80062                       # Per bank write bursts (Count)
system.far_mem_ctrl.dram.perBankWrBursts::23        79775                       # Per bank write bursts (Count)
system.far_mem_ctrl.dram.perBankWrBursts::24        79477                       # Per bank write bursts (Count)
system.far_mem_ctrl.dram.perBankWrBursts::25        79525                       # Per bank write bursts (Count)
system.far_mem_ctrl.dram.perBankWrBursts::26        79211                       # Per bank write bursts (Count)
system.far_mem_ctrl.dram.perBankWrBursts::27        79872                       # Per bank write bursts (Count)
system.far_mem_ctrl.dram.perBankWrBursts::28        79828                       # Per bank write bursts (Count)
system.far_mem_ctrl.dram.perBankWrBursts::29        79764                       # Per bank write bursts (Count)
system.far_mem_ctrl.dram.perBankWrBursts::30        79560                       # Per bank write bursts (Count)
system.far_mem_ctrl.dram.perBankWrBursts::31        80137                       # Per bank write bursts (Count)
system.far_mem_ctrl.dram.totQLat                    0                       # Total ticks spent queuing (Tick)
system.far_mem_ctrl.dram.totBusLat                  0                       # Total ticks spent in databus transfers (Tick)
system.far_mem_ctrl.dram.totMemAccLat               0                       # Total ticks spent from burst creation until serviced by the DRAM (Tick)
system.far_mem_ctrl.dram.avgQLat                  nan                       # Average queueing delay per DRAM burst ((Tick/Count))
system.far_mem_ctrl.dram.avgBusLat                nan                       # Average bus latency per DRAM burst ((Tick/Count))
system.far_mem_ctrl.dram.avgMemAccLat             nan                       # Average memory access latency per DRAM burst ((Tick/Count))
system.far_mem_ctrl.dram.readRowHits                0                       # Number of row buffer hits during reads (Count)
system.far_mem_ctrl.dram.writeRowHits            9131                       # Number of row buffer hits during writes (Count)
system.far_mem_ctrl.dram.readRowHitRate           nan                       # Row buffer hit rate for reads (Ratio)
system.far_mem_ctrl.dram.writeRowHitRate         0.35                       # Row buffer hit rate for writes (Ratio)
system.far_mem_ctrl.dram.bytesPerActivate::samples      2570399                       # Bytes accessed per row activation (Byte)
system.far_mem_ctrl.dram.bytesPerActivate::mean    64.227351                       # Bytes accessed per row activation (Byte)
system.far_mem_ctrl.dram.bytesPerActivate::gmean    64.075923                       # Bytes accessed per row activation (Byte)
system.far_mem_ctrl.dram.bytesPerActivate::stdev    11.074095                       # Bytes accessed per row activation (Byte)
system.far_mem_ctrl.dram.bytesPerActivate::0-127      2568097     99.91%     99.91% # Bytes accessed per row activation (Byte)
system.far_mem_ctrl.dram.bytesPerActivate::128-255         1296      0.05%     99.96% # Bytes accessed per row activation (Byte)
system.far_mem_ctrl.dram.bytesPerActivate::256-383          348      0.01%     99.97% # Bytes accessed per row activation (Byte)
system.far_mem_ctrl.dram.bytesPerActivate::384-511          197      0.01%     99.98% # Bytes accessed per row activation (Byte)
system.far_mem_ctrl.dram.bytesPerActivate::512-639          119      0.00%     99.99% # Bytes accessed per row activation (Byte)
system.far_mem_ctrl.dram.bytesPerActivate::640-767           88      0.00%     99.99% # Bytes accessed per row activation (Byte)
system.far_mem_ctrl.dram.bytesPerActivate::768-895           51      0.00%     99.99% # Bytes accessed per row activation (Byte)
system.far_mem_ctrl.dram.bytesPerActivate::896-1023           44      0.00%     99.99% # Bytes accessed per row activation (Byte)
system.far_mem_ctrl.dram.bytesPerActivate::1024-1151          159      0.01%    100.00% # Bytes accessed per row activation (Byte)
system.far_mem_ctrl.dram.bytesPerActivate::total      2570399                       # Bytes accessed per row activation (Byte)
system.far_mem_ctrl.dram.bytesRead                  0                       # Total bytes read (Byte)
system.far_mem_ctrl.dram.bytesWritten       165090624                       # Total bytes written (Byte)
system.far_mem_ctrl.dram.avgRdBW                    0                       # Average DRAM read bandwidth in MiBytes/s ((Byte/Second))
system.far_mem_ctrl.dram.avgWrBW          8254.218778                       # Average DRAM write bandwidth in MiBytes/s ((Byte/Second))
system.far_mem_ctrl.dram.peakBW              19207.00                       # Theoretical peak bandwidth in MiByte/s ((Byte/Second))
system.far_mem_ctrl.dram.busUtil                42.98                       # Data bus utilization in percentage (Ratio)
system.far_mem_ctrl.dram.busUtilRead             0.00                       # Data bus utilization in percentage for reads (Ratio)
system.far_mem_ctrl.dram.busUtilWrite           42.98                       # Data bus utilization in percentage for writes (Ratio)
system.far_mem_ctrl.dram.pageHitRate             0.35                       # Row buffer hit rate, read and write combined (Ratio)
system.far_mem_ctrl.dram.power_state.pwrStateResidencyTicks::UNDEFINED  20000757000                       # Cumulative time (in ticks) in various power states (Tick)
system.far_mem_ctrl.dram.rank0.actEnergy 4040156090.880006                       # Energy for activate commands per rank (pJ) (Joule)
system.far_mem_ctrl.dram.rank0.preEnergy 5371273530.840010                       # Energy for precharge commands per rank (pJ) (Joule)
system.far_mem_ctrl.dram.rank0.readEnergy            0                       # Energy for read commands per rank (pJ) (Joule)
system.far_mem_ctrl.dram.rank0.writeEnergy 4902146196.863995                       # Energy for write commands per rank (pJ) (Joule)
system.far_mem_ctrl.dram.rank0.refreshEnergy 3557649746.649648                       # Energy for refresh commands per rank (pJ) (Joule)
system.far_mem_ctrl.dram.rank0.actBackEnergy 16647435449.164757                       # Energy for active background per rank (pJ) (Joule)
system.far_mem_ctrl.dram.rank0.preBackEnergy 265244547.724805                       # Energy for precharge background per rank (pJ) (Joule)
system.far_mem_ctrl.dram.rank0.actPowerDownEnergy            0                       # Energy for active power-down per rank (pJ) (Joule)
system.far_mem_ctrl.dram.rank0.prePowerDownEnergy            0                       # Energy for precharge power-down per rank (pJ) (Joule)
system.far_mem_ctrl.dram.rank0.selfRefreshEnergy            0                       # Energy for self refresh per rank (pJ) (Joule)
system.far_mem_ctrl.dram.rank0.totalEnergy 34783905562.123207                       # Total energy per rank (pJ) (Joule)
system.far_mem_ctrl.dram.rank0.averagePower  1739.129452                       # Core power per rank (mW) (Watt)
system.far_mem_ctrl.dram.rank0.totalIdleTime            0                       # Total Idle time Per DRAM Rank (Tick)
system.far_mem_ctrl.dram.rank0.pwrStateTime::IDLE    334617990                       # Time in different power states (Tick)
system.far_mem_ctrl.dram.rank0.pwrStateTime::REF    898800000                       # Time in different power states (Tick)
system.far_mem_ctrl.dram.rank0.pwrStateTime::SREF            0                       # Time in different power states (Tick)
system.far_mem_ctrl.dram.rank0.pwrStateTime::PRE_PDN            0                       # Time in different power states (Tick)
system.far_mem_ctrl.dram.rank0.pwrStateTime::ACT  18767339010                       # Time in different power states (Tick)
system.far_mem_ctrl.dram.rank0.pwrStateTime::ACT_PDN            0                       # Time in different power states (Tick)
system.far_mem_ctrl.dram.rank1.actEnergy 3976315237.439995                       # Energy for activate commands per rank (pJ) (Joule)
system.far_mem_ctrl.dram.rank1.preEnergy 5286426959.049587                       # Energy for precharge commands per rank (pJ) (Joule)
system.far_mem_ctrl.dram.rank1.readEnergy            0                       # Energy for read commands per rank (pJ) (Joule)
system.far_mem_ctrl.dram.rank1.writeEnergy 4793014507.008003                       # Energy for write commands per rank (pJ) (Joule)
system.far_mem_ctrl.dram.rank1.refreshEnergy 3557649746.649648                       # Energy for refresh commands per rank (pJ) (Joule)
system.far_mem_ctrl.dram.rank1.actBackEnergy 16642287517.161598                       # Energy for active background per rank (pJ) (Joule)
system.far_mem_ctrl.dram.rank1.preBackEnergy 269200020.902405                       # Energy for precharge background per rank (pJ) (Joule)
system.far_mem_ctrl.dram.rank1.actPowerDownEnergy            0                       # Energy for active power-down per rank (pJ) (Joule)
system.far_mem_ctrl.dram.rank1.prePowerDownEnergy            0                       # Energy for precharge power-down per rank (pJ) (Joule)
system.far_mem_ctrl.dram.rank1.selfRefreshEnergy            0                       # Energy for self refresh per rank (pJ) (Joule)
system.far_mem_ctrl.dram.rank1.totalEnergy 34524893988.211136                       # Total energy per rank (pJ) (Joule)
system.far_mem_ctrl.dram.rank1.averagePower  1726.179364                       # Core power per rank (mW) (Watt)
system.far_mem_ctrl.dram.rank1.totalIdleTime            0                       # Total Idle time Per DRAM Rank (Tick)
system.far_mem_ctrl.dram.rank1.pwrStateTime::IDLE    340621317                       # Time in different power states (Tick)
system.far_mem_ctrl.dram.rank1.pwrStateTime::REF    898800000                       # Time in different power states (Tick)
system.far_mem_ctrl.dram.rank1.pwrStateTime::SREF            0                       # Time in different power states (Tick)
system.far_mem_ctrl.dram.rank1.pwrStateTime::PRE_PDN            0                       # Time in different power states (Tick)
system.far_mem_ctrl.dram.rank1.pwrStateTime::ACT  18761335683                       # Time in different power states (Tick)
system.far_mem_ctrl.dram.rank1.pwrStateTime::ACT_PDN            0                       # Time in different power states (Tick)
system.far_mem_ctrl.power_state.pwrStateResidencyTicks::UNDEFINED  20000757000                       # Cumulative time (in ticks) in various power states (Tick)
system.generator.numSuppressed                      0                       # Number of suppressed packets to non-memory space (Count)
system.generator.numPackets                   3563881                       # Number of packets generated (Count)
system.generator.numRetries                   3559936                       # Number of retries (Count)
system.generator.retryTicks               19987239473                       # Time spent waiting due to back-pressure (Tick)
system.generator.bytesRead                          0                       # Number of bytes read (Byte)
system.generator.bytesWritten               228088320                       # Number of bytes written (Byte)
system.generator.totalReadLatency                   0                       # Total latency of read requests (Tick)
system.generator.totalWriteLatency        91907815388                       # Total latency of write requests (Tick)
system.generator.totalReads                         0                       # Total num of reads (Count)
system.generator.totalWrites                  3563880                       # Total num of writes (Count)
system.generator.avgReadLatency                   nan                       # Avg latency of read requests ((Tick/Count))
system.generator.avgWriteLatency         25788.695295                       # Avg latency of write requests ((Tick/Count))
system.generator.readBW                             0                       # Read bandwidth ((Byte/Second))
system.generator.writeBW                 11403984359.192003                       # Write bandwidth ((Byte/Second))
system.generator.power_state.pwrStateResidencyTicks::UNDEFINED  20000757000                       # Cumulative time (in ticks) in various power states (Tick)
system.loc_mem_ctrl.avgPriority_writebacks::samples  14255004.00                       # Average QoS priority value for accepted requests (Count)
system.loc_mem_ctrl.priorityMinLatency   0.000000020000                       # per QoS priority minimum request to response latency (Second)
system.loc_mem_ctrl.priorityMaxLatency   0.000003416000                       # per QoS priority maximum request to response latency (Second)
system.loc_mem_ctrl.numReadWriteTurnArounds            0                       # Number of turnarounds from READ to WRITE (Count)
system.loc_mem_ctrl.numWriteReadTurnArounds            0                       # Number of turnarounds from WRITE to READ (Count)
system.loc_mem_ctrl.numStayReadState         14376732                       # Number of times bus staying in READ state (Count)
system.loc_mem_ctrl.numStayWriteState               0                       # Number of times bus staying in WRITE state (Count)
system.loc_mem_ctrl.readReqs                  3563881                       # Number of read requests accepted (Count)
system.loc_mem_ctrl.writeReqs                 3563627                       # Number of write requests accepted (Count)
system.loc_mem_ctrl.readBursts                7127762                       # Number of controller read bursts, including those serviced by the write queue (Count)
system.loc_mem_ctrl.writeBursts               7127254                       # Number of controller write bursts, including those merged in the write queue (Count)
system.loc_mem_ctrl.servicedByWrQ                  12                       # Number of controller read bursts serviced by the write queue (Count)
system.loc_mem_ctrl.mergedWrBursts                  0                       # Number of controller write bursts merged with an existing one (Count)
system.loc_mem_ctrl.avgRdQLen                   91.39                       # Average read queue length when enqueuing ((Count/Tick))
system.loc_mem_ctrl.avgWrQLen                   81.82                       # Average write queue length when enqueuing ((Count/Tick))
system.loc_mem_ctrl.numRdRetry                9433091                       # Number of times read queue was full causing retry (Count)
system.loc_mem_ctrl.numWrRetry               10598537                       # Number of times write queue was full causing retry (Count)
system.loc_mem_ctrl.readPktSize::0                  0                       # Read request sizes (log2) (Count)
system.loc_mem_ctrl.readPktSize::1                  0                       # Read request sizes (log2) (Count)
system.loc_mem_ctrl.readPktSize::2                  0                       # Read request sizes (log2) (Count)
system.loc_mem_ctrl.readPktSize::3                  0                       # Read request sizes (log2) (Count)
system.loc_mem_ctrl.readPktSize::4                  0                       # Read request sizes (log2) (Count)
system.loc_mem_ctrl.readPktSize::5            7127762                       # Read request sizes (log2) (Count)
system.loc_mem_ctrl.readPktSize::6                  0                       # Read request sizes (log2) (Count)
system.loc_mem_ctrl.writePktSize::0                 0                       # Write request sizes (log2) (Count)
system.loc_mem_ctrl.writePktSize::1                 0                       # Write request sizes (log2) (Count)
system.loc_mem_ctrl.writePktSize::2                 0                       # Write request sizes (log2) (Count)
system.loc_mem_ctrl.writePktSize::3                 0                       # Write request sizes (log2) (Count)
system.loc_mem_ctrl.writePktSize::4                 0                       # Write request sizes (log2) (Count)
system.loc_mem_ctrl.writePktSize::5           7127254                       # Write request sizes (log2) (Count)
system.loc_mem_ctrl.writePktSize::6                 0                       # Write request sizes (log2) (Count)
system.loc_mem_ctrl.rdQLenPdf::0                 1721                       # What read queue length does an incoming req see (Count)
system.loc_mem_ctrl.rdQLenPdf::1                 2003                       # What read queue length does an incoming req see (Count)
system.loc_mem_ctrl.rdQLenPdf::2                 6984                       # What read queue length does an incoming req see (Count)
system.loc_mem_ctrl.rdQLenPdf::3                 8462                       # What read queue length does an incoming req see (Count)
system.loc_mem_ctrl.rdQLenPdf::4                 9503                       # What read queue length does an incoming req see (Count)
system.loc_mem_ctrl.rdQLenPdf::5                10729                       # What read queue length does an incoming req see (Count)
system.loc_mem_ctrl.rdQLenPdf::6                10482                       # What read queue length does an incoming req see (Count)
system.loc_mem_ctrl.rdQLenPdf::7                10721                       # What read queue length does an incoming req see (Count)
system.loc_mem_ctrl.rdQLenPdf::8                10798                       # What read queue length does an incoming req see (Count)
system.loc_mem_ctrl.rdQLenPdf::9                11082                       # What read queue length does an incoming req see (Count)
system.loc_mem_ctrl.rdQLenPdf::10               11094                       # What read queue length does an incoming req see (Count)
system.loc_mem_ctrl.rdQLenPdf::11               11468                       # What read queue length does an incoming req see (Count)
system.loc_mem_ctrl.rdQLenPdf::12               11567                       # What read queue length does an incoming req see (Count)
system.loc_mem_ctrl.rdQLenPdf::13               11869                       # What read queue length does an incoming req see (Count)
system.loc_mem_ctrl.rdQLenPdf::14               11711                       # What read queue length does an incoming req see (Count)
system.loc_mem_ctrl.rdQLenPdf::15               11773                       # What read queue length does an incoming req see (Count)
system.loc_mem_ctrl.rdQLenPdf::16               12500                       # What read queue length does an incoming req see (Count)
system.loc_mem_ctrl.rdQLenPdf::17               12665                       # What read queue length does an incoming req see (Count)
system.loc_mem_ctrl.rdQLenPdf::18               12664                       # What read queue length does an incoming req see (Count)
system.loc_mem_ctrl.rdQLenPdf::19               13026                       # What read queue length does an incoming req see (Count)
system.loc_mem_ctrl.rdQLenPdf::20               12802                       # What read queue length does an incoming req see (Count)
system.loc_mem_ctrl.rdQLenPdf::21               12893                       # What read queue length does an incoming req see (Count)
system.loc_mem_ctrl.rdQLenPdf::22               12874                       # What read queue length does an incoming req see (Count)
system.loc_mem_ctrl.rdQLenPdf::23               12879                       # What read queue length does an incoming req see (Count)
system.loc_mem_ctrl.rdQLenPdf::24               12677                       # What read queue length does an incoming req see (Count)
system.loc_mem_ctrl.rdQLenPdf::25               12737                       # What read queue length does an incoming req see (Count)
system.loc_mem_ctrl.rdQLenPdf::26               12688                       # What read queue length does an incoming req see (Count)
system.loc_mem_ctrl.rdQLenPdf::27               12561                       # What read queue length does an incoming req see (Count)
system.loc_mem_ctrl.rdQLenPdf::28               12649                       # What read queue length does an incoming req see (Count)
system.loc_mem_ctrl.rdQLenPdf::29               12867                       # What read queue length does an incoming req see (Count)
system.loc_mem_ctrl.rdQLenPdf::30               12867                       # What read queue length does an incoming req see (Count)
system.loc_mem_ctrl.rdQLenPdf::31               12771                       # What read queue length does an incoming req see (Count)
system.loc_mem_ctrl.rdQLenPdf::32               12914                       # What read queue length does an incoming req see (Count)
system.loc_mem_ctrl.rdQLenPdf::33               13002                       # What read queue length does an incoming req see (Count)
system.loc_mem_ctrl.rdQLenPdf::34               13114                       # What read queue length does an incoming req see (Count)
system.loc_mem_ctrl.rdQLenPdf::35               13267                       # What read queue length does an incoming req see (Count)
system.loc_mem_ctrl.rdQLenPdf::36               13213                       # What read queue length does an incoming req see (Count)
system.loc_mem_ctrl.rdQLenPdf::37               13351                       # What read queue length does an incoming req see (Count)
system.loc_mem_ctrl.rdQLenPdf::38               13333                       # What read queue length does an incoming req see (Count)
system.loc_mem_ctrl.rdQLenPdf::39               13468                       # What read queue length does an incoming req see (Count)
system.loc_mem_ctrl.rdQLenPdf::40               25457                       # What read queue length does an incoming req see (Count)
system.loc_mem_ctrl.rdQLenPdf::41               30198                       # What read queue length does an incoming req see (Count)
system.loc_mem_ctrl.rdQLenPdf::42               28665                       # What read queue length does an incoming req see (Count)
system.loc_mem_ctrl.rdQLenPdf::43               29166                       # What read queue length does an incoming req see (Count)
system.loc_mem_ctrl.rdQLenPdf::44               31076                       # What read queue length does an incoming req see (Count)
system.loc_mem_ctrl.rdQLenPdf::45               30635                       # What read queue length does an incoming req see (Count)
system.loc_mem_ctrl.rdQLenPdf::46               31141                       # What read queue length does an incoming req see (Count)
system.loc_mem_ctrl.rdQLenPdf::47               32145                       # What read queue length does an incoming req see (Count)
system.loc_mem_ctrl.rdQLenPdf::48               32508                       # What read queue length does an incoming req see (Count)
system.loc_mem_ctrl.rdQLenPdf::49               33065                       # What read queue length does an incoming req see (Count)
system.loc_mem_ctrl.rdQLenPdf::50               33947                       # What read queue length does an incoming req see (Count)
system.loc_mem_ctrl.rdQLenPdf::51               34427                       # What read queue length does an incoming req see (Count)
system.loc_mem_ctrl.rdQLenPdf::52               35533                       # What read queue length does an incoming req see (Count)
system.loc_mem_ctrl.rdQLenPdf::53               35962                       # What read queue length does an incoming req see (Count)
system.loc_mem_ctrl.rdQLenPdf::54               36759                       # What read queue length does an incoming req see (Count)
system.loc_mem_ctrl.rdQLenPdf::55               37616                       # What read queue length does an incoming req see (Count)
system.loc_mem_ctrl.rdQLenPdf::56               39030                       # What read queue length does an incoming req see (Count)
system.loc_mem_ctrl.rdQLenPdf::57               40242                       # What read queue length does an incoming req see (Count)
system.loc_mem_ctrl.rdQLenPdf::58               41387                       # What read queue length does an incoming req see (Count)
system.loc_mem_ctrl.rdQLenPdf::59               42781                       # What read queue length does an incoming req see (Count)
system.loc_mem_ctrl.rdQLenPdf::60               44337                       # What read queue length does an incoming req see (Count)
system.loc_mem_ctrl.rdQLenPdf::61               45790                       # What read queue length does an incoming req see (Count)
system.loc_mem_ctrl.rdQLenPdf::62               67864                       # What read queue length does an incoming req see (Count)
system.loc_mem_ctrl.rdQLenPdf::63               73592                       # What read queue length does an incoming req see (Count)
system.loc_mem_ctrl.rdQLenPdf::64               75878                       # What read queue length does an incoming req see (Count)
system.loc_mem_ctrl.rdQLenPdf::65               81595                       # What read queue length does an incoming req see (Count)
system.loc_mem_ctrl.rdQLenPdf::66               83292                       # What read queue length does an incoming req see (Count)
system.loc_mem_ctrl.rdQLenPdf::67               91191                       # What read queue length does an incoming req see (Count)
system.loc_mem_ctrl.rdQLenPdf::68               94801                       # What read queue length does an incoming req see (Count)
system.loc_mem_ctrl.rdQLenPdf::69               99618                       # What read queue length does an incoming req see (Count)
system.loc_mem_ctrl.rdQLenPdf::70              105842                       # What read queue length does an incoming req see (Count)
system.loc_mem_ctrl.rdQLenPdf::71              110580                       # What read queue length does an incoming req see (Count)
system.loc_mem_ctrl.rdQLenPdf::72              116631                       # What read queue length does an incoming req see (Count)
system.loc_mem_ctrl.rdQLenPdf::73              121829                       # What read queue length does an incoming req see (Count)
system.loc_mem_ctrl.rdQLenPdf::74              126603                       # What read queue length does an incoming req see (Count)
system.loc_mem_ctrl.rdQLenPdf::75              131137                       # What read queue length does an incoming req see (Count)
system.loc_mem_ctrl.rdQLenPdf::76              137356                       # What read queue length does an incoming req see (Count)
system.loc_mem_ctrl.rdQLenPdf::77              139931                       # What read queue length does an incoming req see (Count)
system.loc_mem_ctrl.rdQLenPdf::78              143544                       # What read queue length does an incoming req see (Count)
system.loc_mem_ctrl.rdQLenPdf::79              145091                       # What read queue length does an incoming req see (Count)
system.loc_mem_ctrl.rdQLenPdf::80              146928                       # What read queue length does an incoming req see (Count)
system.loc_mem_ctrl.rdQLenPdf::81              147486                       # What read queue length does an incoming req see (Count)
system.loc_mem_ctrl.rdQLenPdf::82              148223                       # What read queue length does an incoming req see (Count)
system.loc_mem_ctrl.rdQLenPdf::83              148733                       # What read queue length does an incoming req see (Count)
system.loc_mem_ctrl.rdQLenPdf::84              149080                       # What read queue length does an incoming req see (Count)
system.loc_mem_ctrl.rdQLenPdf::85              149066                       # What read queue length does an incoming req see (Count)
system.loc_mem_ctrl.rdQLenPdf::86              148664                       # What read queue length does an incoming req see (Count)
system.loc_mem_ctrl.rdQLenPdf::87              147986                       # What read queue length does an incoming req see (Count)
system.loc_mem_ctrl.rdQLenPdf::88              147122                       # What read queue length does an incoming req see (Count)
system.loc_mem_ctrl.rdQLenPdf::89              146193                       # What read queue length does an incoming req see (Count)
system.loc_mem_ctrl.rdQLenPdf::90              144853                       # What read queue length does an incoming req see (Count)
system.loc_mem_ctrl.rdQLenPdf::91              143797                       # What read queue length does an incoming req see (Count)
system.loc_mem_ctrl.rdQLenPdf::92              142992                       # What read queue length does an incoming req see (Count)
system.loc_mem_ctrl.rdQLenPdf::93              142396                       # What read queue length does an incoming req see (Count)
system.loc_mem_ctrl.rdQLenPdf::94              140897                       # What read queue length does an incoming req see (Count)
system.loc_mem_ctrl.rdQLenPdf::95              139787                       # What read queue length does an incoming req see (Count)
system.loc_mem_ctrl.rdQLenPdf::96              137988                       # What read queue length does an incoming req see (Count)
system.loc_mem_ctrl.rdQLenPdf::97              136435                       # What read queue length does an incoming req see (Count)
system.loc_mem_ctrl.rdQLenPdf::98              134649                       # What read queue length does an incoming req see (Count)
system.loc_mem_ctrl.rdQLenPdf::99              133117                       # What read queue length does an incoming req see (Count)
system.loc_mem_ctrl.rdQLenPdf::100             131572                       # What read queue length does an incoming req see (Count)
system.loc_mem_ctrl.rdQLenPdf::101             129839                       # What read queue length does an incoming req see (Count)
system.loc_mem_ctrl.rdQLenPdf::102             126871                       # What read queue length does an incoming req see (Count)
system.loc_mem_ctrl.rdQLenPdf::103             118639                       # What read queue length does an incoming req see (Count)
system.loc_mem_ctrl.rdQLenPdf::104              93598                       # What read queue length does an incoming req see (Count)
system.loc_mem_ctrl.rdQLenPdf::105              57215                       # What read queue length does an incoming req see (Count)
system.loc_mem_ctrl.rdQLenPdf::106              26940                       # What read queue length does an incoming req see (Count)
system.loc_mem_ctrl.rdQLenPdf::107              23885                       # What read queue length does an incoming req see (Count)
system.loc_mem_ctrl.rdQLenPdf::108              21946                       # What read queue length does an incoming req see (Count)
system.loc_mem_ctrl.rdQLenPdf::109              21468                       # What read queue length does an incoming req see (Count)
system.loc_mem_ctrl.rdQLenPdf::110              20750                       # What read queue length does an incoming req see (Count)
system.loc_mem_ctrl.rdQLenPdf::111              20510                       # What read queue length does an incoming req see (Count)
system.loc_mem_ctrl.rdQLenPdf::112              20217                       # What read queue length does an incoming req see (Count)
system.loc_mem_ctrl.rdQLenPdf::113              19917                       # What read queue length does an incoming req see (Count)
system.loc_mem_ctrl.rdQLenPdf::114              19369                       # What read queue length does an incoming req see (Count)
system.loc_mem_ctrl.rdQLenPdf::115              19205                       # What read queue length does an incoming req see (Count)
system.loc_mem_ctrl.rdQLenPdf::116              18502                       # What read queue length does an incoming req see (Count)
system.loc_mem_ctrl.rdQLenPdf::117              18313                       # What read queue length does an incoming req see (Count)
system.loc_mem_ctrl.rdQLenPdf::118              18015                       # What read queue length does an incoming req see (Count)
system.loc_mem_ctrl.rdQLenPdf::119              17900                       # What read queue length does an incoming req see (Count)
system.loc_mem_ctrl.rdQLenPdf::120              17533                       # What read queue length does an incoming req see (Count)
system.loc_mem_ctrl.rdQLenPdf::121              17199                       # What read queue length does an incoming req see (Count)
system.loc_mem_ctrl.rdQLenPdf::122              16795                       # What read queue length does an incoming req see (Count)
system.loc_mem_ctrl.rdQLenPdf::123              16636                       # What read queue length does an incoming req see (Count)
system.loc_mem_ctrl.rdQLenPdf::124              15937                       # What read queue length does an incoming req see (Count)
system.loc_mem_ctrl.rdQLenPdf::125              15522                       # What read queue length does an incoming req see (Count)
system.loc_mem_ctrl.rdQLenPdf::126              14628                       # What read queue length does an incoming req see (Count)
system.loc_mem_ctrl.rdQLenPdf::127              12446                       # What read queue length does an incoming req see (Count)
system.loc_mem_ctrl.wrQLenPdf::0                 1800                       # What write queue length does an incoming req see (Count)
system.loc_mem_ctrl.wrQLenPdf::1                 2480                       # What write queue length does an incoming req see (Count)
system.loc_mem_ctrl.wrQLenPdf::2                 2596                       # What write queue length does an incoming req see (Count)
system.loc_mem_ctrl.wrQLenPdf::3                 3170                       # What write queue length does an incoming req see (Count)
system.loc_mem_ctrl.wrQLenPdf::4                 3417                       # What write queue length does an incoming req see (Count)
system.loc_mem_ctrl.wrQLenPdf::5                 3994                       # What write queue length does an incoming req see (Count)
system.loc_mem_ctrl.wrQLenPdf::6                 4150                       # What write queue length does an incoming req see (Count)
system.loc_mem_ctrl.wrQLenPdf::7                 4555                       # What write queue length does an incoming req see (Count)
system.loc_mem_ctrl.wrQLenPdf::8                 4873                       # What write queue length does an incoming req see (Count)
system.loc_mem_ctrl.wrQLenPdf::9                 5297                       # What write queue length does an incoming req see (Count)
system.loc_mem_ctrl.wrQLenPdf::10                5418                       # What write queue length does an incoming req see (Count)
system.loc_mem_ctrl.wrQLenPdf::11                5799                       # What write queue length does an incoming req see (Count)
system.loc_mem_ctrl.wrQLenPdf::12                6047                       # What write queue length does an incoming req see (Count)
system.loc_mem_ctrl.wrQLenPdf::13                6332                       # What write queue length does an incoming req see (Count)
system.loc_mem_ctrl.wrQLenPdf::14                6539                       # What write queue length does an incoming req see (Count)
system.loc_mem_ctrl.wrQLenPdf::15                6781                       # What write queue length does an incoming req see (Count)
system.loc_mem_ctrl.wrQLenPdf::16                7096                       # What write queue length does an incoming req see (Count)
system.loc_mem_ctrl.wrQLenPdf::17                7461                       # What write queue length does an incoming req see (Count)
system.loc_mem_ctrl.wrQLenPdf::18                7643                       # What write queue length does an incoming req see (Count)
system.loc_mem_ctrl.wrQLenPdf::19                7867                       # What write queue length does an incoming req see (Count)
system.loc_mem_ctrl.wrQLenPdf::20                8167                       # What write queue length does an incoming req see (Count)
system.loc_mem_ctrl.wrQLenPdf::21                8353                       # What write queue length does an incoming req see (Count)
system.loc_mem_ctrl.wrQLenPdf::22                8496                       # What write queue length does an incoming req see (Count)
system.loc_mem_ctrl.wrQLenPdf::23                8720                       # What write queue length does an incoming req see (Count)
system.loc_mem_ctrl.wrQLenPdf::24                9184                       # What write queue length does an incoming req see (Count)
system.loc_mem_ctrl.wrQLenPdf::25                9416                       # What write queue length does an incoming req see (Count)
system.loc_mem_ctrl.wrQLenPdf::26                9584                       # What write queue length does an incoming req see (Count)
system.loc_mem_ctrl.wrQLenPdf::27                9795                       # What write queue length does an incoming req see (Count)
system.loc_mem_ctrl.wrQLenPdf::28               10074                       # What write queue length does an incoming req see (Count)
system.loc_mem_ctrl.wrQLenPdf::29               10246                       # What write queue length does an incoming req see (Count)
system.loc_mem_ctrl.wrQLenPdf::30               10507                       # What write queue length does an incoming req see (Count)
system.loc_mem_ctrl.wrQLenPdf::31               10766                       # What write queue length does an incoming req see (Count)
system.loc_mem_ctrl.wrQLenPdf::32               11141                       # What write queue length does an incoming req see (Count)
system.loc_mem_ctrl.wrQLenPdf::33               11415                       # What write queue length does an incoming req see (Count)
system.loc_mem_ctrl.wrQLenPdf::34               11521                       # What write queue length does an incoming req see (Count)
system.loc_mem_ctrl.wrQLenPdf::35               11650                       # What write queue length does an incoming req see (Count)
system.loc_mem_ctrl.wrQLenPdf::36               12052                       # What write queue length does an incoming req see (Count)
system.loc_mem_ctrl.wrQLenPdf::37               12081                       # What write queue length does an incoming req see (Count)
system.loc_mem_ctrl.wrQLenPdf::38               12239                       # What write queue length does an incoming req see (Count)
system.loc_mem_ctrl.wrQLenPdf::39               12455                       # What write queue length does an incoming req see (Count)
system.loc_mem_ctrl.wrQLenPdf::40               12912                       # What write queue length does an incoming req see (Count)
system.loc_mem_ctrl.wrQLenPdf::41               13091                       # What write queue length does an incoming req see (Count)
system.loc_mem_ctrl.wrQLenPdf::42               13303                       # What write queue length does an incoming req see (Count)
[...]
system.loc_mem_ctrl.dram_2.bwTotal::total  11391370437                       # Total bandwidth to/from this memory ((Byte/Second))
system.loc_mem_ctrl.dram_2.readBursts         3560060                       # Number of DRAM read bursts (Count)
system.loc_mem_ctrl.dram_2.writeBursts        3559788                       # Number of DRAM write bursts (Count)
system.loc_mem_ctrl.dram_2.perBankRdBursts::0       221292                       # Per bank write bursts (Count)
system.loc_mem_ctrl.dram_2.perBankRdBursts::1       223556                       # Per bank write bursts (Count)
system.loc_mem_ctrl.dram_2.perBankRdBursts::2       222916                       # Per bank write bursts (Count)
system.loc_mem_ctrl.dram_2.perBankRdBursts::3       222194                       # Per bank write bursts (Count)
system.loc_mem_ctrl.dram_2.perBankRdBursts::4       223010                       # Per bank write bursts (Count)
system.loc_mem_ctrl.dram_2.perBankRdBursts::5       222728                       # Per bank write bursts (Count)
system.loc_mem_ctrl.dram_2.perBankRdBursts::6       222450                       # Per bank write bursts (Count)
system.loc_mem_ctrl.dram_2.perBankRdBursts::7       222330                       # Per bank write bursts (Count)
system.loc_mem_ctrl.dram_2.perBankRdBursts::8       223086                       # Per bank write bursts (Count)
system.loc_mem_ctrl.dram_2.perBankRdBursts::9       221818                       # Per bank write bursts (Count)
system.loc_mem_ctrl.dram_2.perBankRdBursts::10       221904                       # Per bank write bursts (Count)
system.loc_mem_ctrl.dram_2.perBankRdBursts::11       222172                       # Per bank write bursts (Count)
system.loc_mem_ctrl.dram_2.perBankRdBursts::12       222516                       # Per bank write bursts (Count)
system.loc_mem_ctrl.dram_2.perBankRdBursts::13       221690                       # Per bank write bursts (Count)
system.loc_mem_ctrl.dram_2.perBankRdBursts::14       223080                       # Per bank write bursts (Count)
system.loc_mem_ctrl.dram_2.perBankRdBursts::15       223318                       # Per bank write bursts (Count)
system.loc_mem_ctrl.dram_2.perBankWrBursts::0       221278                       # Per bank write bursts (Count)
system.loc_mem_ctrl.dram_2.perBankWrBursts::1       223542                       # Per bank write bursts (Count)
system.loc_mem_ctrl.dram_2.perBankWrBursts::2       222898                       # Per bank write bursts (Count)
system.loc_mem_ctrl.dram_2.perBankWrBursts::3       222180                       # Per bank write bursts (Count)
system.loc_mem_ctrl.dram_2.perBankWrBursts::4       222980                       # Per bank write bursts (Count)
system.loc_mem_ctrl.dram_2.perBankWrBursts::5       222720                       # Per bank write bursts (Count)
system.loc_mem_ctrl.dram_2.perBankWrBursts::6       222426                       # Per bank write bursts (Count)
system.loc_mem_ctrl.dram_2.perBankWrBursts::7       222306                       # Per bank write bursts (Count)
system.loc_mem_ctrl.dram_2.perBankWrBursts::8       223066                       # Per bank write bursts (Count)
system.loc_mem_ctrl.dram_2.perBankWrBursts::9       221808                       # Per bank write bursts (Count)
system.loc_mem_ctrl.dram_2.perBankWrBursts::10       221884                       # Per bank write bursts (Count)
system.loc_mem_ctrl.dram_2.perBankWrBursts::11       222162                       # Per bank write bursts (Count)
system.loc_mem_ctrl.dram_2.perBankWrBursts::12       222504                       # Per bank write bursts (Count)
system.loc_mem_ctrl.dram_2.perBankWrBursts::13       221672                       # Per bank write bursts (Count)
system.loc_mem_ctrl.dram_2.perBankWrBursts::14       223058                       # Per bank write bursts (Count)
system.loc_mem_ctrl.dram_2.perBankWrBursts::15       223304                       # Per bank write bursts (Count)
system.loc_mem_ctrl.dram_2.totQLat       741499796267                       # Total ticks spent queuing (Tick)
system.loc_mem_ctrl.dram_2.totBusLat       7120120000                       # Total ticks spent in databus transfers (Tick)
system.loc_mem_ctrl.dram_2.totMemAccLat  812700996267                       # Total ticks spent from burst creation until serviced by the DRAM (Tick)
system.loc_mem_ctrl.dram_2.avgQLat          208282.95                       # Average queueing delay per DRAM burst ((Tick/Count))
system.loc_mem_ctrl.dram_2.avgBusLat          2000.00                       # Average bus latency per DRAM burst ((Tick/Count))
system.loc_mem_ctrl.dram_2.avgMemAccLat     228282.95                       # Average memory access latency per DRAM burst ((Tick/Count))
system.loc_mem_ctrl.dram_2.readRowHits        1777876                       # Number of row buffer hits during reads (Count)
system.loc_mem_ctrl.dram_2.writeRowHits       1777722                       # Number of row buffer hits during writes (Count)
system.loc_mem_ctrl.dram_2.readRowHitRate        49.94                       # Row buffer hit rate for reads (Ratio)
system.loc_mem_ctrl.dram_2.writeRowHitRate        49.94                       # Row buffer hit rate for writes (Ratio)
system.loc_mem_ctrl.dram_2.bytesPerActivate::samples      3564250                       # Bytes accessed per row activation (Byte)
system.loc_mem_ctrl.dram_2.bytesPerActivate::mean    63.922322                       # Bytes accessed per row activation (Byte)
system.loc_mem_ctrl.dram_2.bytesPerActivate::gmean    63.891896                       # Bytes accessed per row activation (Byte)
system.loc_mem_ctrl.dram_2.bytesPerActivate::stdev     1.596978                       # Bytes accessed per row activation (Byte)
system.loc_mem_ctrl.dram_2.bytesPerActivate::32-47         8734      0.25%      0.25% # Bytes accessed per row activation (Byte)
system.loc_mem_ctrl.dram_2.bytesPerActivate::64-79      3555475     99.75%    100.00% # Bytes accessed per row activation (Byte)
system.loc_mem_ctrl.dram_2.bytesPerActivate::128-143           41      0.00%    100.00% # Bytes accessed per row activation (Byte)
system.loc_mem_ctrl.dram_2.bytesPerActivate::total      3564250                       # Bytes accessed per row activation (Byte)
system.loc_mem_ctrl.dram_2.bytesRead        113921920                       # Total bytes read (Byte)
system.loc_mem_ctrl.dram_2.bytesWritten     113913216                       # Total bytes written (Byte)
system.loc_mem_ctrl.dram_2.avgRdBW        5695.880411                       # Average DRAM read bandwidth in MiBytes/s ((Byte/Second))
system.loc_mem_ctrl.dram_2.avgWrBW        5695.445227                       # Average DRAM write bandwidth in MiBytes/s ((Byte/Second))
system.loc_mem_ctrl.dram_2.peakBW            16000.00                       # Theoretical peak bandwidth in MiByte/s ((Byte/Second))
system.loc_mem_ctrl.dram_2.busUtil              71.20                       # Data bus utilization in percentage (Ratio)
system.loc_mem_ctrl.dram_2.busUtilRead          35.60                       # Data bus utilization in percentage for reads (Ratio)
system.loc_mem_ctrl.dram_2.busUtilWrite         35.60                       # Data bus utilization in percentage for writes (Ratio)
system.loc_mem_ctrl.dram_2.pageHitRate          49.94                       # Row buffer hit rate, read and write combined (Ratio)
system.loc_mem_ctrl.dram_2.power_state.pwrStateResidencyTicks::UNDEFINED  20000757000                       # Cumulative time (in ticks) in various power states (Tick)
system.loc_mem_ctrl.dram_2.rank0.actEnergy            0                       # Energy for activate commands per rank (pJ) (Joule)
system.loc_mem_ctrl.dram_2.rank0.preEnergy            0                       # Energy for precharge commands per rank (pJ) (Joule)
system.loc_mem_ctrl.dram_2.rank0.readEnergy            0                       # Energy for read commands per rank (pJ) (Joule)
system.loc_mem_ctrl.dram_2.rank0.writeEnergy            0                       # Energy for write commands per rank (pJ) (Joule)
system.loc_mem_ctrl.dram_2.rank0.refreshEnergy            0                       # Energy for refresh commands per rank (pJ) (Joule)
system.loc_mem_ctrl.dram_2.rank0.actBackEnergy            0                       # Energy for active background per rank (pJ) (Joule)
system.loc_mem_ctrl.dram_2.rank0.preBackEnergy            0                       # Energy for precharge background per rank (pJ) (Joule)
system.loc_mem_ctrl.dram_2.rank0.actPowerDownEnergy            0                       # Energy for active power-down per rank (pJ) (Joule)
system.loc_mem_ctrl.dram_2.rank0.prePowerDownEnergy            0                       # Energy for precharge power-down per rank (pJ) (Joule)
system.loc_mem_ctrl.dram_2.rank0.selfRefreshEnergy            0                       # Energy for self refresh per rank (pJ) (Joule)
system.loc_mem_ctrl.dram_2.rank0.totalEnergy            0                       # Total energy per rank (pJ) (Joule)
system.loc_mem_ctrl.dram_2.rank0.averagePower            0                       # Core power per rank (mW) (Watt)
system.loc_mem_ctrl.dram_2.rank0.totalIdleTime            0                       # Total Idle time Per DRAM Rank (Tick)
system.loc_mem_ctrl.dram_2.rank0.pwrStateTime::IDLE     99025080                       # Time in different power states (Tick)
system.loc_mem_ctrl.dram_2.rank0.pwrStateTime::REF   1132120000                       # Time in different power states (Tick)
system.loc_mem_ctrl.dram_2.rank0.pwrStateTime::SREF            0                       # Time in different power states (Tick)
system.loc_mem_ctrl.dram_2.rank0.pwrStateTime::PRE_PDN            0                       # Time in different power states (Tick)
system.loc_mem_ctrl.dram_2.rank0.pwrStateTime::ACT  18769611920                       # Time in different power states (Tick)
system.loc_mem_ctrl.dram_2.rank0.pwrStateTime::ACT_PDN            0                       # Time in different power states (Tick)
system.loc_mem_ctrl.power_state.pwrStateResidencyTicks::UNDEFINED  20000757000                       # Cumulative time (in ticks) in various power states (Tick)
system.mem_ctrl.bytesWritten::generator     228088384                       # Number of bytes written to this memory (Byte)
system.mem_ctrl.bytesWritten::total         228088384                       # Number of bytes written to this memory (Byte)
system.mem_ctrl.numWrites::generator          3563881                       # Number of write requests responded to by this memory (Count)
system.mem_ctrl.numWrites::total              3563881                       # Number of write requests responded to by this memory (Count)
system.mem_ctrl.bwWrite::generator        11403987559                       # Write bandwidth from this memory ((Byte/Second))
system.mem_ctrl.bwWrite::total            11403987559                       # Write bandwidth from this memory ((Byte/Second))
system.mem_ctrl.bwTotal::generator        11403987559                       # Total bandwidth to/from this memory ((Byte/Second))
system.mem_ctrl.bwTotal::total            11403987559                       # Total bandwidth to/from this memory ((Byte/Second))
system.mem_ctrl.readReqs                            0                       # Number of read requests accepted (Count)
system.mem_ctrl.writeReqs                     3563881                       # Number of write requests accepted (Count)
system.mem_ctrl.servicedByWrQ                       0                       # Number of controller read bursts serviced by the write queue (Count)
system.mem_ctrl.mergedWrBursts                     18                       # Number of controller write bursts merged with an existing one (Count)
system.mem_ctrl.numRdRetry                          0                       # Number of times read queue was full causing retry (Count)
system.mem_ctrl.numWrRetry                    3559936                       # Number of times write queue was full causing retry (Count)
system.mem_ctrl.readPktSize::0                      0                       # Read request sizes (log2) (Count)
system.mem_ctrl.readPktSize::1                      0                       # Read request sizes (log2) (Count)
system.mem_ctrl.readPktSize::2                      0                       # Read request sizes (log2) (Count)
system.mem_ctrl.readPktSize::3                      0                       # Read request sizes (log2) (Count)
system.mem_ctrl.readPktSize::4                      0                       # Read request sizes (log2) (Count)
system.mem_ctrl.readPktSize::5                      0                       # Read request sizes (log2) (Count)
system.mem_ctrl.readPktSize::6                      0                       # Read request sizes (log2) (Count)
system.mem_ctrl.writePktSize::0                     0                       # Write request sizes (log2) (Count)
system.mem_ctrl.writePktSize::1                     0                       # Write request sizes (log2) (Count)
system.mem_ctrl.writePktSize::2                     0                       # Write request sizes (log2) (Count)
system.mem_ctrl.writePktSize::3                     0                       # Write request sizes (log2) (Count)
system.mem_ctrl.writePktSize::4                     0                       # Write request sizes (log2) (Count)
system.mem_ctrl.writePktSize::5                     0                       # Write request sizes (log2) (Count)
system.mem_ctrl.writePktSize::6               3563881                       # Write request sizes (log2) (Count)
system.mem_ctrl.bytesReadWrQ                        0                       # Total number of bytes read from write queue (Byte)
system.mem_ctrl.bytesReadSys                        0                       # Total read bytes from the system interface side (Byte)
system.mem_ctrl.bytesWrittenSys             228088384                       # Total written bytes from the system interface side (Byte)
system.mem_ctrl.avgRdBWSys                 0.00000000                       # Average system read bandwidth in Byte/s ((Byte/Second))
system.mem_ctrl.avgWrBWSys               11403987559.07088852                       # Average system write bandwidth in Byte/s ((Byte/Second))
system.mem_ctrl.totGap                   608188796277265920                       # Total gap between requests (Tick)
system.mem_ctrl.avgGap                   170653508430.07                       # Average gap between requests ((Tick/Count))
system.mem_ctrl.avgORBLen                    255.9979                       # Average ORB length ((Count/Tick))
system.mem_ctrl.avgLocRdQLenStrt               146.91                       # Average local read queue length ((Count/Tick))
system.mem_ctrl.avgLocWrQLenStrt                57.48                       # Average local write queue length ((Count/Tick))
system.mem_ctrl.avgFarRdQLenStrt                 0.00                       # Average far read queue length ((Count/Tick))
system.mem_ctrl.avgFarWrQLenStrt                 0.49                       # Average far write queue length ((Count/Tick))
system.mem_ctrl.avgLocRdQLenEnq                147.91                       # Average local read queue length when enqueuing ((Count/Tick))
system.mem_ctrl.avgLocWrQLenEnq                134.17                       # Average local write queue length when enqueuing ((Count/Tick))
system.mem_ctrl.avgFarRdQLenEnq                  0.00                       # Average far read queue length when enqueuing ((Count/Tick))
system.mem_ctrl.avgFarWrQLenEnq                  2.55                       # Average far write queue length when enqueuing ((Count/Tick))
system.mem_ctrl.numWrBacks                    3563879                       # Total number of write backs from DRAM cache to main memory (Unspecified)
system.mem_ctrl.totNumConf                        902                       # Total number of packets conflicted on DRAM cache (Unspecified)
system.mem_ctrl.totNumORBFull                 3559931                       # Total number of packets ORB full (Unspecified)
system.mem_ctrl.totNumCRBFull                       0                       # Total number of packets conflicted yet couldn't enter confBuffer (Unspecified)
system.mem_ctrl.maxNumConf                          2                       # Maximum number of packets conflicted on DRAM cache (Unspecified)
system.mem_ctrl.sentLocRdPort                 3563881                       # stat (Unspecified)
system.mem_ctrl.sentLocWrPort                 3563627                       # stat (Unspecified)
system.mem_ctrl.failedLocRdPort               9433091                       # stat (Unspecified)
system.mem_ctrl.failedLocWrPort              10598537                       # stat (Unspecified)
system.mem_ctrl.recvdRdPort                         0                       # stat (Unspecified)
system.mem_ctrl.sentFarRdPort                       0                       # stat (Unspecified)
system.mem_ctrl.sentFarWrPort                 3563879                       # stat (Unspecified)
system.mem_ctrl.failedFarRdPort                     0                       # stat (Unspecified)
system.mem_ctrl.failedFarWrPort                231639                       # stat (Unspecified)
system.mem_ctrl.totPktsServiceTime         5120062120                       # stat (Unspecified)
system.mem_ctrl.totPktsORBTime             5119418436                       # stat (Unspecified)
system.mem_ctrl.totTimeFarRdtoSend                  0                       # stat (Unspecified)
system.mem_ctrl.totTimeFarRdtoRecv                  0                       # stat (Unspecified)
system.mem_ctrl.totTimeFarWrtoSend                  0                       # stat (Unspecified)
system.mem_ctrl.totTimeInLocRead           3163197676                       # stat (Unspecified)
system.mem_ctrl.totTimeInLocWrite          1955905146                       # stat (Unspecified)
system.mem_ctrl.totTimeInFarRead                    0                       # stat (Unspecified)
system.mem_ctrl.numTotHits                          0                       # stat (Unspecified)
system.mem_ctrl.numTotMisses                  3563881                       # stat (Unspecified)
system.mem_ctrl.numColdMisses                 1013505                       # stat (Unspecified)
system.mem_ctrl.numHotMisses                  2550376                       # stat (Unspecified)
system.mem_ctrl.numRdMissClean                      0                       # stat (Unspecified)
system.mem_ctrl.numRdMissDirty                      0                       # stat (Unspecified)
system.mem_ctrl.numRdHit                            0                       # stat (Unspecified)
system.mem_ctrl.numWrMissClean                1013505                       # stat (Unspecified)
system.mem_ctrl.numWrMissDirty                2550376                       # stat (Unspecified)
system.mem_ctrl.numWrHit                            0                       # stat (Unspecified)
system.mem_ctrl.numRdHitDirty                       0                       # stat (Unspecified)
system.mem_ctrl.numRdHitClean                       0                       # stat (Unspecified)
system.mem_ctrl.numWrHitDirty                       0                       # stat (Unspecified)
system.mem_ctrl.numWrHitClean                       0                       # stat (Unspecified)
system.mem_ctrl.power_state.pwrStateResidencyTicks::UNDEFINED  20000757000                       # Cumulative time (in ticks) in various power states (Tick)
system.workload.inst.arm                            0                       # number of arm instructions executed (Count)
system.workload.inst.quiesce                        0                       # number of quiesce instructions executed (Count)

---------- End Simulation Statistics   ----------
