
---------- Begin Simulation Statistics ----------
simSeconds                                          2                       # Number of seconds simulated (Second)
simTicks                                 2000000000000                       # Number of ticks simulated (Tick)
finalTick                                20911590733250                       # Number of ticks from beginning of simulation (restored from checkpoints and never reset) (Tick)
simFreq                                  1000000000000                       # The number of ticks per simulated second ((Tick/Second))
hostSeconds                                   5047.17                       # Real time elapsed on the host (Second)
hostTickRate                                396261469                       # The number of ticks simulated per host second (ticks/s) ((Tick/Second))
hostMemory                                   12702500                       # Number of bytes of host memory used (Byte)
simInsts                                  23875713227                       # Number of instructions simulated (Count)
simOps                                    24441006912                       # Number of ops (including micro ops) simulated (Count)
hostInstRate                                  4730512                       # Simulator instruction rate (inst/s) ((Count/Second))
hostOpRate                                    4842515                       # Simulator op (including micro ops) rate (op/s) ((Count/Second))
system.atomicCpu0.numCycles                         0                       # Number of cpu cycles simulated (Cycle)
system.atomicCpu0.numWorkItemsStarted               0                       # Number of work items this cpu started (Count)
system.atomicCpu0.numWorkItemsCompleted             0                       # Number of work items this cpu completed (Count)
system.atomicCpu0.exec_context.thread_0.numInsts            0                       # Number of instructions committed (Count)
system.atomicCpu0.exec_context.thread_0.numOps            0                       # Number of ops (including micro ops) committed (Count)
system.atomicCpu0.exec_context.thread_0.numIntAluAccesses            0                       # Number of integer alu accesses (Count)
system.atomicCpu0.exec_context.thread_0.numFpAluAccesses            0                       # Number of float alu accesses (Count)
system.atomicCpu0.exec_context.thread_0.numVecAluAccesses            0                       # Number of vector alu accesses (Count)
system.atomicCpu0.exec_context.thread_0.numCallsReturns            0                       # Number of times a function call or return occured (Count)
system.atomicCpu0.exec_context.thread_0.numCondCtrlInsts            0                       # Number of instructions that are conditional controls (Count)
system.atomicCpu0.exec_context.thread_0.numIntInsts            0                       # Number of integer instructions (Count)
system.atomicCpu0.exec_context.thread_0.numFpInsts            0                       # Number of float instructions (Count)
system.atomicCpu0.exec_context.thread_0.numVecInsts            0                       # Number of vector instructions (Count)
system.atomicCpu0.exec_context.thread_0.numIntRegReads            0                       # Number of times the integer registers were read (Count)
system.atomicCpu0.exec_context.thread_0.numIntRegWrites            0                       # Number of times the integer registers were written (Count)
system.atomicCpu0.exec_context.thread_0.numFpRegReads            0                       # Number of times the floating registers were read (Count)
system.atomicCpu0.exec_context.thread_0.numFpRegWrites            0                       # Number of times the floating registers were written (Count)
system.atomicCpu0.exec_context.thread_0.numVecRegReads            0                       # Number of times the vector registers were read (Count)
system.atomicCpu0.exec_context.thread_0.numVecRegWrites            0                       # Number of times the vector registers were written (Count)
system.atomicCpu0.exec_context.thread_0.numVecPredRegReads            0                       # Number of times the predicate registers were read (Count)
system.atomicCpu0.exec_context.thread_0.numVecPredRegWrites            0                       # Number of times the predicate registers were written (Count)
system.atomicCpu0.exec_context.thread_0.numMiscRegReads            0                       # Number of times the Misc registers were read (Count)
system.atomicCpu0.exec_context.thread_0.numMiscRegWrites            0                       # Number of times the Misc registers were written (Count)
system.atomicCpu0.exec_context.thread_0.numMemRefs            0                       # Number of memory refs (Count)
system.atomicCpu0.exec_context.thread_0.numLoadInsts            0                       # Number of load instructions (Count)
system.atomicCpu0.exec_context.thread_0.numStoreInsts            0                       # Number of store instructions (Count)
system.atomicCpu0.exec_context.thread_0.numIdleCycles            0                       # Number of idle cycles (Cycle)
system.atomicCpu0.exec_context.thread_0.numBusyCycles            0                       # Number of busy cycles (Cycle)
system.atomicCpu0.exec_context.thread_0.notIdleFraction            0                       # Percentage of non-idle cycles (Ratio)
system.atomicCpu0.exec_context.thread_0.idleFraction            1                       # Percentage of idle cycles (Ratio)
system.atomicCpu0.exec_context.thread_0.statExecutedInstType::No_OpClass            0                       # Class of executed instruction. (Count)
system.atomicCpu0.exec_context.thread_0.statExecutedInstType::IntAlu            0                       # Class of executed instruction. (Count)
system.atomicCpu0.exec_context.thread_0.statExecutedInstType::IntMult            0                       # Class of executed instruction. (Count)
system.atomicCpu0.exec_context.thread_0.statExecutedInstType::IntDiv            0                       # Class of executed instruction. (Count)
system.atomicCpu0.exec_context.thread_0.statExecutedInstType::FloatAdd            0                       # Class of executed instruction. (Count)
system.atomicCpu0.exec_context.thread_0.statExecutedInstType::FloatCmp            0                       # Class of executed instruction. (Count)
system.atomicCpu0.exec_context.thread_0.statExecutedInstType::FloatCvt            0                       # Class of executed instruction. (Count)
system.atomicCpu0.exec_context.thread_0.statExecutedInstType::FloatMult            0                       # Class of executed instruction. (Count)
system.atomicCpu0.exec_context.thread_0.statExecutedInstType::FloatMultAcc            0                       # Class of executed instruction. (Count)
system.atomicCpu0.exec_context.thread_0.statExecutedInstType::FloatDiv            0                       # Class of executed instruction. (Count)
system.atomicCpu0.exec_context.thread_0.statExecutedInstType::FloatMisc            0                       # Class of executed instruction. (Count)
system.atomicCpu0.exec_context.thread_0.statExecutedInstType::FloatSqrt            0                       # Class of executed instruction. (Count)
system.atomicCpu0.exec_context.thread_0.statExecutedInstType::SimdAdd            0                       # Class of executed instruction. (Count)
system.atomicCpu0.exec_context.thread_0.statExecutedInstType::SimdAddAcc            0                       # Class of executed instruction. (Count)
system.atomicCpu0.exec_context.thread_0.statExecutedInstType::SimdAlu            0                       # Class of executed instruction. (Count)
system.atomicCpu0.exec_context.thread_0.statExecutedInstType::SimdCmp            0                       # Class of executed instruction. (Count)
system.atomicCpu0.exec_context.thread_0.statExecutedInstType::SimdCvt            0                       # Class of executed instruction. (Count)
system.atomicCpu0.exec_context.thread_0.statExecutedInstType::SimdMisc            0                       # Class of executed instruction. (Count)
system.atomicCpu0.exec_context.thread_0.statExecutedInstType::SimdMult            0                       # Class of executed instruction. (Count)
system.atomicCpu0.exec_context.thread_0.statExecutedInstType::SimdMultAcc            0                       # Class of executed instruction. (Count)
system.atomicCpu0.exec_context.thread_0.statExecutedInstType::SimdShift            0                       # Class of executed instruction. (Count)
system.atomicCpu0.exec_context.thread_0.statExecutedInstType::SimdShiftAcc            0                       # Class of executed instruction. (Count)
system.atomicCpu0.exec_context.thread_0.statExecutedInstType::SimdDiv            0                       # Class of executed instruction. (Count)
system.atomicCpu0.exec_context.thread_0.statExecutedInstType::SimdSqrt            0                       # Class of executed instruction. (Count)
system.atomicCpu0.exec_context.thread_0.statExecutedInstType::SimdFloatAdd            0                       # Class of executed instruction. (Count)
system.atomicCpu0.exec_context.thread_0.statExecutedInstType::SimdFloatAlu            0                       # Class of executed instruction. (Count)
system.atomicCpu0.exec_context.thread_0.statExecutedInstType::SimdFloatCmp            0                       # Class of executed instruction. (Count)
system.atomicCpu0.exec_context.thread_0.statExecutedInstType::SimdFloatCvt            0                       # Class of executed instruction. (Count)
system.atomicCpu0.exec_context.thread_0.statExecutedInstType::SimdFloatDiv            0                       # Class of executed instruction. (Count)
system.atomicCpu0.exec_context.thread_0.statExecutedInstType::SimdFloatMisc            0                       # Class of executed instruction. (Count)
system.atomicCpu0.exec_context.thread_0.statExecutedInstType::SimdFloatMult            0                       # Class of executed instruction. (Count)
system.atomicCpu0.exec_context.thread_0.statExecutedInstType::SimdFloatMultAcc            0                       # Class of executed instruction. (Count)
system.atomicCpu0.exec_context.thread_0.statExecutedInstType::SimdFloatSqrt            0                       # Class of executed instruction. (Count)
system.atomicCpu0.exec_context.thread_0.statExecutedInstType::SimdReduceAdd            0                       # Class of executed instruction. (Count)
system.atomicCpu0.exec_context.thread_0.statExecutedInstType::SimdReduceAlu            0                       # Class of executed instruction. (Count)
system.atomicCpu0.exec_context.thread_0.statExecutedInstType::SimdReduceCmp            0                       # Class of executed instruction. (Count)
system.atomicCpu0.exec_context.thread_0.statExecutedInstType::SimdFloatReduceAdd            0                       # Class of executed instruction. (Count)
system.atomicCpu0.exec_context.thread_0.statExecutedInstType::SimdFloatReduceCmp            0                       # Class of executed instruction. (Count)
system.atomicCpu0.exec_context.thread_0.statExecutedInstType::SimdAes            0                       # Class of executed instruction. (Count)
system.atomicCpu0.exec_context.thread_0.statExecutedInstType::SimdAesMix            0                       # Class of executed instruction. (Count)
system.atomicCpu0.exec_context.thread_0.statExecutedInstType::SimdSha1Hash            0                       # Class of executed instruction. (Count)
system.atomicCpu0.exec_context.thread_0.statExecutedInstType::SimdSha1Hash2            0                       # Class of executed instruction. (Count)
system.atomicCpu0.exec_context.thread_0.statExecutedInstType::SimdSha256Hash            0                       # Class of executed instruction. (Count)
system.atomicCpu0.exec_context.thread_0.statExecutedInstType::SimdSha256Hash2            0                       # Class of executed instruction. (Count)
system.atomicCpu0.exec_context.thread_0.statExecutedInstType::SimdShaSigma2            0                       # Class of executed instruction. (Count)
system.atomicCpu0.exec_context.thread_0.statExecutedInstType::SimdShaSigma3            0                       # Class of executed instruction. (Count)
system.atomicCpu0.exec_context.thread_0.statExecutedInstType::SimdPredAlu            0                       # Class of executed instruction. (Count)
system.atomicCpu0.exec_context.thread_0.statExecutedInstType::MemRead            0                       # Class of executed instruction. (Count)
system.atomicCpu0.exec_context.thread_0.statExecutedInstType::MemWrite            0                       # Class of executed instruction. (Count)
system.atomicCpu0.exec_context.thread_0.statExecutedInstType::FloatMemRead            0                       # Class of executed instruction. (Count)
system.atomicCpu0.exec_context.thread_0.statExecutedInstType::FloatMemWrite            0                       # Class of executed instruction. (Count)
system.atomicCpu0.exec_context.thread_0.statExecutedInstType::IprAccess            0                       # Class of executed instruction. (Count)
system.atomicCpu0.exec_context.thread_0.statExecutedInstType::InstPrefetch            0                       # Class of executed instruction. (Count)
system.atomicCpu0.exec_context.thread_0.statExecutedInstType::total            0                       # Class of executed instruction. (Count)
system.atomicCpu0.mmu.dtb.rdAccesses                0                       # TLB accesses on read requests (Count)
system.atomicCpu0.mmu.dtb.wrAccesses                0                       # TLB accesses on write requests (Count)
system.atomicCpu0.mmu.dtb.rdMisses                  0                       # TLB misses on read requests (Count)
system.atomicCpu0.mmu.dtb.wrMisses                  0                       # TLB misses on write requests (Count)
system.atomicCpu0.mmu.dtb.walker.power_state.pwrStateResidencyTicks::UNDEFINED 20911590733250                       # Cumulative time (in ticks) in various power states (Tick)
system.atomicCpu0.mmu.itb.rdAccesses                0                       # TLB accesses on read requests (Count)
system.atomicCpu0.mmu.itb.wrAccesses                0                       # TLB accesses on write requests (Count)
system.atomicCpu0.mmu.itb.rdMisses                  0                       # TLB misses on read requests (Count)
system.atomicCpu0.mmu.itb.wrMisses                  0                       # TLB misses on write requests (Count)
system.atomicCpu0.mmu.itb.walker.power_state.pwrStateResidencyTicks::UNDEFINED 20911590733250                       # Cumulative time (in ticks) in various power states (Tick)
system.atomicCpu0.power_state.pwrStateResidencyTicks::OFF 20911590733250                       # Cumulative time (in ticks) in various power states (Tick)
system.atomicCpu0.thread_0.numInsts                 0                       # Number of Instructions committed (Count)
system.atomicCpu0.thread_0.numOps                   0                       # Number of Ops committed (Count)
system.atomicCpu0.thread_0.numMemRefs               0                       # Number of Memory References (Count)
system.atomicCpu1.numCycles                         0                       # Number of cpu cycles simulated (Cycle)
system.atomicCpu1.numWorkItemsStarted               0                       # Number of work items this cpu started (Count)
system.atomicCpu1.numWorkItemsCompleted             0                       # Number of work items this cpu completed (Count)
system.atomicCpu1.exec_context.thread_0.numInsts            0                       # Number of instructions committed (Count)
system.atomicCpu1.exec_context.thread_0.numOps            0                       # Number of ops (including micro ops) committed (Count)
system.atomicCpu1.exec_context.thread_0.numIntAluAccesses            0                       # Number of integer alu accesses (Count)
system.atomicCpu1.exec_context.thread_0.numFpAluAccesses            0                       # Number of float alu accesses (Count)
system.atomicCpu1.exec_context.thread_0.numVecAluAccesses            0                       # Number of vector alu accesses (Count)
system.atomicCpu1.exec_context.thread_0.numCallsReturns            0                       # Number of times a function call or return occured (Count)
system.atomicCpu1.exec_context.thread_0.numCondCtrlInsts            0                       # Number of instructions that are conditional controls (Count)
system.atomicCpu1.exec_context.thread_0.numIntInsts            0                       # Number of integer instructions (Count)
system.atomicCpu1.exec_context.thread_0.numFpInsts            0                       # Number of float instructions (Count)
system.atomicCpu1.exec_context.thread_0.numVecInsts            0                       # Number of vector instructions (Count)
system.atomicCpu1.exec_context.thread_0.numIntRegReads            0                       # Number of times the integer registers were read (Count)
system.atomicCpu1.exec_context.thread_0.numIntRegWrites            0                       # Number of times the integer registers were written (Count)
system.atomicCpu1.exec_context.thread_0.numFpRegReads            0                       # Number of times the floating registers were read (Count)
system.atomicCpu1.exec_context.thread_0.numFpRegWrites            0                       # Number of times the floating registers were written (Count)
system.atomicCpu1.exec_context.thread_0.numVecRegReads            0                       # Number of times the vector registers were read (Count)
system.atomicCpu1.exec_context.thread_0.numVecRegWrites            0                       # Number of times the vector registers were written (Count)
system.atomicCpu1.exec_context.thread_0.numVecPredRegReads            0                       # Number of times the predicate registers were read (Count)
system.atomicCpu1.exec_context.thread_0.numVecPredRegWrites            0                       # Number of times the predicate registers were written (Count)
system.atomicCpu1.exec_context.thread_0.numMiscRegReads            0                       # Number of times the Misc registers were read (Count)
system.atomicCpu1.exec_context.thread_0.numMiscRegWrites            0                       # Number of times the Misc registers were written (Count)
system.atomicCpu1.exec_context.thread_0.numMemRefs            0                       # Number of memory refs (Count)
system.atomicCpu1.exec_context.thread_0.numLoadInsts            0                       # Number of load instructions (Count)
system.atomicCpu1.exec_context.thread_0.numStoreInsts            0                       # Number of store instructions (Count)
system.atomicCpu1.exec_context.thread_0.numIdleCycles            0                       # Number of idle cycles (Cycle)
system.atomicCpu1.exec_context.thread_0.numBusyCycles            0                       # Number of busy cycles (Cycle)
system.atomicCpu1.exec_context.thread_0.notIdleFraction            0                       # Percentage of non-idle cycles (Ratio)
system.atomicCpu1.exec_context.thread_0.idleFraction            1                       # Percentage of idle cycles (Ratio)
system.atomicCpu1.exec_context.thread_0.statExecutedInstType::No_OpClass            0                       # Class of executed instruction. (Count)
system.atomicCpu1.exec_context.thread_0.statExecutedInstType::IntAlu            0                       # Class of executed instruction. (Count)
system.atomicCpu1.exec_context.thread_0.statExecutedInstType::IntMult            0                       # Class of executed instruction. (Count)
system.atomicCpu1.exec_context.thread_0.statExecutedInstType::IntDiv            0                       # Class of executed instruction. (Count)
system.atomicCpu1.exec_context.thread_0.statExecutedInstType::FloatAdd            0                       # Class of executed instruction. (Count)
system.atomicCpu1.exec_context.thread_0.statExecutedInstType::FloatCmp            0                       # Class of executed instruction. (Count)
system.atomicCpu1.exec_context.thread_0.statExecutedInstType::FloatCvt            0                       # Class of executed instruction. (Count)
system.atomicCpu1.exec_context.thread_0.statExecutedInstType::FloatMult            0                       # Class of executed instruction. (Count)
system.atomicCpu1.exec_context.thread_0.statExecutedInstType::FloatMultAcc            0                       # Class of executed instruction. (Count)
system.atomicCpu1.exec_context.thread_0.statExecutedInstType::FloatDiv            0                       # Class of executed instruction. (Count)
system.atomicCpu1.exec_context.thread_0.statExecutedInstType::FloatMisc            0                       # Class of executed instruction. (Count)
system.atomicCpu1.exec_context.thread_0.statExecutedInstType::FloatSqrt            0                       # Class of executed instruction. (Count)
system.atomicCpu1.exec_context.thread_0.statExecutedInstType::SimdAdd            0                       # Class of executed instruction. (Count)
system.atomicCpu1.exec_context.thread_0.statExecutedInstType::SimdAddAcc            0                       # Class of executed instruction. (Count)
system.atomicCpu1.exec_context.thread_0.statExecutedInstType::SimdAlu            0                       # Class of executed instruction. (Count)
system.atomicCpu1.exec_context.thread_0.statExecutedInstType::SimdCmp            0                       # Class of executed instruction. (Count)
system.atomicCpu1.exec_context.thread_0.statExecutedInstType::SimdCvt            0                       # Class of executed instruction. (Count)
system.atomicCpu1.exec_context.thread_0.statExecutedInstType::SimdMisc            0                       # Class of executed instruction. (Count)
system.atomicCpu1.exec_context.thread_0.statExecutedInstType::SimdMult            0                       # Class of executed instruction. (Count)
system.atomicCpu1.exec_context.thread_0.statExecutedInstType::SimdMultAcc            0                       # Class of executed instruction. (Count)
system.atomicCpu1.exec_context.thread_0.statExecutedInstType::SimdShift            0                       # Class of executed instruction. (Count)
system.atomicCpu1.exec_context.thread_0.statExecutedInstType::SimdShiftAcc            0                       # Class of executed instruction. (Count)
system.atomicCpu1.exec_context.thread_0.statExecutedInstType::SimdDiv            0                       # Class of executed instruction. (Count)
system.atomicCpu1.exec_context.thread_0.statExecutedInstType::SimdSqrt            0                       # Class of executed instruction. (Count)
system.atomicCpu1.exec_context.thread_0.statExecutedInstType::SimdFloatAdd            0                       # Class of executed instruction. (Count)
system.atomicCpu1.exec_context.thread_0.statExecutedInstType::SimdFloatAlu            0                       # Class of executed instruction. (Count)
system.atomicCpu1.exec_context.thread_0.statExecutedInstType::SimdFloatCmp            0                       # Class of executed instruction. (Count)
system.atomicCpu1.exec_context.thread_0.statExecutedInstType::SimdFloatCvt            0                       # Class of executed instruction. (Count)
system.atomicCpu1.exec_context.thread_0.statExecutedInstType::SimdFloatDiv            0                       # Class of executed instruction. (Count)
system.atomicCpu1.exec_context.thread_0.statExecutedInstType::SimdFloatMisc            0                       # Class of executed instruction. (Count)
system.atomicCpu1.exec_context.thread_0.statExecutedInstType::SimdFloatMult            0                       # Class of executed instruction. (Count)
system.atomicCpu1.exec_context.thread_0.statExecutedInstType::SimdFloatMultAcc            0                       # Class of executed instruction. (Count)
system.atomicCpu1.exec_context.thread_0.statExecutedInstType::SimdFloatSqrt            0                       # Class of executed instruction. (Count)
system.atomicCpu1.exec_context.thread_0.statExecutedInstType::SimdReduceAdd            0                       # Class of executed instruction. (Count)
system.atomicCpu1.exec_context.thread_0.statExecutedInstType::SimdReduceAlu            0                       # Class of executed instruction. (Count)
system.atomicCpu1.exec_context.thread_0.statExecutedInstType::SimdReduceCmp            0                       # Class of executed instruction. (Count)
system.atomicCpu1.exec_context.thread_0.statExecutedInstType::SimdFloatReduceAdd            0                       # Class of executed instruction. (Count)
system.atomicCpu1.exec_context.thread_0.statExecutedInstType::SimdFloatReduceCmp            0                       # Class of executed instruction. (Count)
system.atomicCpu1.exec_context.thread_0.statExecutedInstType::SimdAes            0                       # Class of executed instruction. (Count)
system.atomicCpu1.exec_context.thread_0.statExecutedInstType::SimdAesMix            0                       # Class of executed instruction. (Count)
system.atomicCpu1.exec_context.thread_0.statExecutedInstType::SimdSha1Hash            0                       # Class of executed instruction. (Count)
system.atomicCpu1.exec_context.thread_0.statExecutedInstType::SimdSha1Hash2            0                       # Class of executed instruction. (Count)
system.atomicCpu1.exec_context.thread_0.statExecutedInstType::SimdSha256Hash            0                       # Class of executed instruction. (Count)
system.atomicCpu1.exec_context.thread_0.statExecutedInstType::SimdSha256Hash2            0                       # Class of executed instruction. (Count)
system.atomicCpu1.exec_context.thread_0.statExecutedInstType::SimdShaSigma2            0                       # Class of executed instruction. (Count)
system.atomicCpu1.exec_context.thread_0.statExecutedInstType::SimdShaSigma3            0                       # Class of executed instruction. (Count)
system.atomicCpu1.exec_context.thread_0.statExecutedInstType::SimdPredAlu            0                       # Class of executed instruction. (Count)
system.atomicCpu1.exec_context.thread_0.statExecutedInstType::MemRead            0                       # Class of executed instruction. (Count)
system.atomicCpu1.exec_context.thread_0.statExecutedInstType::MemWrite            0                       # Class of executed instruction. (Count)
system.atomicCpu1.exec_context.thread_0.statExecutedInstType::FloatMemRead            0                       # Class of executed instruction. (Count)
system.atomicCpu1.exec_context.thread_0.statExecutedInstType::FloatMemWrite            0                       # Class of executed instruction. (Count)
system.atomicCpu1.exec_context.thread_0.statExecutedInstType::IprAccess            0                       # Class of executed instruction. (Count)
system.atomicCpu1.exec_context.thread_0.statExecutedInstType::InstPrefetch            0                       # Class of executed instruction. (Count)
system.atomicCpu1.exec_context.thread_0.statExecutedInstType::total            0                       # Class of executed instruction. (Count)
system.atomicCpu1.mmu.dtb.rdAccesses                0                       # TLB accesses on read requests (Count)
system.atomicCpu1.mmu.dtb.wrAccesses                0                       # TLB accesses on write requests (Count)
system.atomicCpu1.mmu.dtb.rdMisses                  0                       # TLB misses on read requests (Count)
system.atomicCpu1.mmu.dtb.wrMisses                  0                       # TLB misses on write requests (Count)
system.atomicCpu1.mmu.dtb.walker.power_state.pwrStateResidencyTicks::UNDEFINED 20911590733250                       # Cumulative time (in ticks) in various power states (Tick)
system.atomicCpu1.mmu.itb.rdAccesses                0                       # TLB accesses on read requests (Count)
system.atomicCpu1.mmu.itb.wrAccesses                0                       # TLB accesses on write requests (Count)
system.atomicCpu1.mmu.itb.rdMisses                  0                       # TLB misses on read requests (Count)
system.atomicCpu1.mmu.itb.wrMisses                  0                       # TLB misses on write requests (Count)
system.atomicCpu1.mmu.itb.walker.power_state.pwrStateResidencyTicks::UNDEFINED 20911590733250                       # Cumulative time (in ticks) in various power states (Tick)
system.atomicCpu1.power_state.pwrStateResidencyTicks::OFF 20911590733250                       # Cumulative time (in ticks) in various power states (Tick)
system.atomicCpu1.thread_0.numInsts                 0                       # Number of Instructions committed (Count)
system.atomicCpu1.thread_0.numOps                   0                       # Number of Ops committed (Count)
system.atomicCpu1.thread_0.numMemRefs               0                       # Number of Memory References (Count)
system.caches.delayHistogram::bucket_size           64                       # delay histogram for all message (Unspecified)
system.caches.delayHistogram::max_bucket          639                       # delay histogram for all message (Unspecified)
system.caches.delayHistogram::samples       142216938                       # delay histogram for all message (Unspecified)
system.caches.delayHistogram::mean           0.565046                       # delay histogram for all message (Unspecified)
system.caches.delayHistogram::stdev          2.056657                       # delay histogram for all message (Unspecified)
system.caches.delayHistogram             |   142216868    100.00%    100.00% |          68      0.00%    100.00% |           0      0.00%    100.00% |           0      0.00%    100.00% |           1      0.00%    100.00% |           0      0.00%    100.00% |           0      0.00%    100.00% |           0      0.00%    100.00% |           1      0.00%    100.00% |           0      0.00%    100.00% # delay histogram for all message (Unspecified)
system.caches.delayHistogram::total         142216938                       # delay histogram for all message (Unspecified)
system.caches.m_outstandReqHistSeqr::bucket_size            1                       (Unspecified)
system.caches.m_outstandReqHistSeqr::max_bucket            9                       (Unspecified)
system.caches.m_outstandReqHistSeqr::samples   1905196281                       (Unspecified)
system.caches.m_outstandReqHistSeqr::mean            1                       (Unspecified)
system.caches.m_outstandReqHistSeqr::gmean            1                       (Unspecified)
system.caches.m_outstandReqHistSeqr      |           0      0.00%      0.00% |  1905196281    100.00%    100.00% |           0      0.00%    100.00% |           0      0.00%    100.00% |           0      0.00%    100.00% |           0      0.00%    100.00% |           0      0.00%    100.00% |           0      0.00%    100.00% |           0      0.00%    100.00% |           0      0.00%    100.00% (Unspecified)
system.caches.m_outstandReqHistSeqr::total   1905196281                       (Unspecified)
system.caches.m_latencyHistSeqr::bucket_size          512                       (Unspecified)
system.caches.m_latencyHistSeqr::max_bucket         5119                       (Unspecified)
system.caches.m_latencyHistSeqr::samples   1905196279                       (Unspecified)
system.caches.m_latencyHistSeqr::mean        7.386996                       (Unspecified)
system.caches.m_latencyHistSeqr::gmean       1.067567                       (Unspecified)
system.caches.m_latencyHistSeqr::stdev      70.799652                       (Unspecified)
system.caches.m_latencyHistSeqr          |  1892174144     99.32%     99.32% |    12163288      0.64%     99.95% |      414624      0.02%     99.98% |      285256      0.01%     99.99% |      153205      0.01%    100.00% |        5696      0.00%    100.00% |          65      0.00%    100.00% |           1      0.00%    100.00% |           0      0.00%    100.00% |           0      0.00%    100.00% (Unspecified)
system.caches.m_latencyHistSeqr::total     1905196279                       (Unspecified)
system.caches.m_hitLatencyHistSeqr::bucket_size            1                       (Unspecified)
system.caches.m_hitLatencyHistSeqr::max_bucket            9                       (Unspecified)
system.caches.m_hitLatencyHistSeqr::samples   1883665846                       (Unspecified)
system.caches.m_hitLatencyHistSeqr::mean            1                       (Unspecified)
system.caches.m_hitLatencyHistSeqr::gmean            1                       (Unspecified)
system.caches.m_hitLatencyHistSeqr       |           0      0.00%      0.00% |  1883665846    100.00%    100.00% |           0      0.00%    100.00% |           0      0.00%    100.00% |           0      0.00%    100.00% |           0      0.00%    100.00% |           0      0.00%    100.00% |           0      0.00%    100.00% |           0      0.00%    100.00% |           0      0.00%    100.00% (Unspecified)
system.caches.m_hitLatencyHistSeqr::total   1883665846                       (Unspecified)
system.caches.m_missLatencyHistSeqr::bucket_size          512                       (Unspecified)
system.caches.m_missLatencyHistSeqr::max_bucket         5119                       (Unspecified)
system.caches.m_missLatencyHistSeqr::samples     21530433                       (Unspecified)
system.caches.m_missLatencyHistSeqr::mean   566.175857                       (Unspecified)
system.caches.m_missLatencyHistSeqr::gmean   325.578241                       (Unspecified)
system.caches.m_missLatencyHistSeqr::stdev   357.411238                       (Unspecified)
system.caches.m_missLatencyHistSeqr      |     8508298     39.52%     39.52% |    12163288     56.49%     96.01% |      414624      1.93%     97.94% |      285256      1.32%     99.26% |      153205      0.71%     99.97% |        5696      0.03%    100.00% |          65      0.00%    100.00% |           1      0.00%    100.00% |           0      0.00%    100.00% |           0      0.00%    100.00% (Unspecified)
system.caches.m_missLatencyHistSeqr::total     21530433                       (Unspecified)
system.caches.delayVCHist.vnet_0::bucket_size           64                       # delay histogram for vnet_0 (Unspecified)
system.caches.delayVCHist.vnet_0::max_bucket          639                       # delay histogram for vnet_0 (Unspecified)
system.caches.delayVCHist.vnet_0::samples     64173680                       # delay histogram for vnet_0 (Unspecified)
system.caches.delayVCHist.vnet_0::mean       1.251772                       # delay histogram for vnet_0 (Unspecified)
system.caches.delayVCHist.vnet_0::stdev      2.917542                       # delay histogram for vnet_0 (Unspecified)
system.caches.delayVCHist.vnet_0         |    64173610    100.00%    100.00% |          68      0.00%    100.00% |           0      0.00%    100.00% |           0      0.00%    100.00% |           1      0.00%    100.00% |           0      0.00%    100.00% |           0      0.00%    100.00% |           0      0.00%    100.00% |           1      0.00%    100.00% |           0      0.00%    100.00% # delay histogram for vnet_0 (Unspecified)
system.caches.delayVCHist.vnet_0::total      64173680                       # delay histogram for vnet_0 (Unspecified)
system.caches.delayVCHist.vnet_1::bucket_size            1                       # delay histogram for vnet_1 (Unspecified)
system.caches.delayVCHist.vnet_1::max_bucket            9                       # delay histogram for vnet_1 (Unspecified)
system.caches.delayVCHist.vnet_1::samples     77928901                       # delay histogram for vnet_1 (Unspecified)
system.caches.delayVCHist.vnet_1::mean       0.000362                       # delay histogram for vnet_1 (Unspecified)
system.caches.delayVCHist.vnet_1::stdev      0.044665                       # delay histogram for vnet_1 (Unspecified)
system.caches.delayVCHist.vnet_1         |    77922735     99.99%     99.99% |           0      0.00%     99.99% |        1730      0.00%     99.99% |           0      0.00%     99.99% |        1838      0.00%    100.00% |           0      0.00%    100.00% |        1683      0.00%    100.00% |           0      0.00%    100.00% |         915      0.00%    100.00% |           0      0.00%    100.00% # delay histogram for vnet_1 (Unspecified)
system.caches.delayVCHist.vnet_1::total      77928901                       # delay histogram for vnet_1 (Unspecified)
system.caches.delayVCHist.vnet_2::bucket_size            1                       # delay histogram for vnet_2 (Unspecified)
system.caches.delayVCHist.vnet_2::max_bucket            9                       # delay histogram for vnet_2 (Unspecified)
system.caches.delayVCHist.vnet_2::samples       114357                       # delay histogram for vnet_2 (Unspecified)
system.caches.delayVCHist.vnet_2::mean       0.000052                       # delay histogram for vnet_2 (Unspecified)
system.caches.delayVCHist.vnet_2::stdev      0.010244                       # delay histogram for vnet_2 (Unspecified)
system.caches.delayVCHist.vnet_2         |      114354    100.00%    100.00% |           0      0.00%    100.00% |           3      0.00%    100.00% |           0      0.00%    100.00% |           0      0.00%    100.00% |           0      0.00%    100.00% |           0      0.00%    100.00% |           0      0.00%    100.00% |           0      0.00%    100.00% |           0      0.00%    100.00% # delay histogram for vnet_2 (Unspecified)
system.caches.delayVCHist.vnet_2::total        114357                       # delay histogram for vnet_2 (Unspecified)
system.caches.L1Cache_Controller.Load    |   154356288     50.13%     50.13% |   153543760     49.87%    100.00% (Unspecified)
system.caches.L1Cache_Controller.Load::total    307900048                       (Unspecified)
system.caches.L1Cache_Controller.Ifetch  |   728100651     50.08%     50.08% |   725808266     49.92%    100.00% (Unspecified)
system.caches.L1Cache_Controller.Ifetch::total   1453908917                       (Unspecified)
system.caches.L1Cache_Controller.Store   |    71854542     50.11%     50.11% |    71532772     49.89%    100.00% (Unspecified)
system.caches.L1Cache_Controller.Store::total    143387314                       (Unspecified)
system.caches.L1Cache_Controller.Inv     |       45801     47.13%     47.13% |       51383     52.87%    100.00% (Unspecified)
system.caches.L1Cache_Controller.Inv::total        97184                       (Unspecified)
system.caches.L1Cache_Controller.L1_Replacement |    10706146     50.01%     50.01% |    10700806     49.99%    100.00% (Unspecified)
system.caches.L1Cache_Controller.L1_Replacement::total     21406952                       (Unspecified)
system.caches.L1Cache_Controller.Fwd_GETX |           7      3.07%      3.07% |         221     96.93%    100.00% (Unspecified)
system.caches.L1Cache_Controller.Fwd_GETX::total          228                       (Unspecified)
system.caches.L1Cache_Controller.Fwd_GETS |       14271     84.22%     84.22% |        2674     15.78%    100.00% (Unspecified)
system.caches.L1Cache_Controller.Fwd_GETS::total        16945                       (Unspecified)
system.caches.L1Cache_Controller.Data    |         475     99.79%     99.79% |           1      0.21%    100.00% (Unspecified)
system.caches.L1Cache_Controller.Data::total          476                       (Unspecified)
system.caches.L1Cache_Controller.Data_Exclusive |     7536699     49.98%     49.98% |     7541777     50.02%    100.00% (Unspecified)
system.caches.L1Cache_Controller.Data_Exclusive::total     15078476                       (Unspecified)
system.caches.L1Cache_Controller.DataS_fromL1 |        2674     15.78%     15.78% |       14271     84.22%    100.00% (Unspecified)
system.caches.L1Cache_Controller.DataS_fromL1::total        16945                       (Unspecified)
system.caches.L1Cache_Controller.Data_all_Acks |     3218694     50.13%     50.13% |     3202601     49.87%    100.00% (Unspecified)
system.caches.L1Cache_Controller.Data_all_Acks::total      6421295                       (Unspecified)
system.caches.L1Cache_Controller.Ack     |       13171     99.47%     99.47% |          70      0.53%    100.00% (Unspecified)
system.caches.L1Cache_Controller.Ack::total        13241                       (Unspecified)
system.caches.L1Cache_Controller.Ack_all |       13646     99.48%     99.48% |          71      0.52%    100.00% (Unspecified)
system.caches.L1Cache_Controller.Ack_all::total        13717                       (Unspecified)
system.caches.L1Cache_Controller.WB_Ack  |    10629661     49.93%     49.93% |    10657850     50.07%    100.00% (Unspecified)
system.caches.L1Cache_Controller.WB_Ack::total     21287511                       (Unspecified)
system.caches.L1Cache_Controller.NP.Load |     7540495     49.98%     49.98% |     7545679     50.02%    100.00% (Unspecified)
system.caches.L1Cache_Controller.NP.Load::total     15086174                       (Unspecified)
system.caches.L1Cache_Controller.NP.Ifetch |       65285     67.05%     67.05% |       32076     32.95%    100.00% (Unspecified)
system.caches.L1Cache_Controller.NP.Ifetch::total        97361                       (Unspecified)
system.caches.L1Cache_Controller.NP.Store |     3109017     49.82%     49.82% |     3131725     50.18%    100.00% (Unspecified)
system.caches.L1Cache_Controller.NP.Store::total      6240742                       (Unspecified)
system.caches.L1Cache_Controller.NP.Inv  |         858     43.75%     43.75% |        1103     56.25%    100.00% (Unspecified)
system.caches.L1Cache_Controller.NP.Inv::total         1961                       (Unspecified)
system.caches.L1Cache_Controller.I.Load  |       11375     33.32%     33.32% |       22759     66.68%    100.00% (Unspecified)
system.caches.L1Cache_Controller.I.Load::total        34134                       (Unspecified)
system.caches.L1Cache_Controller.I.Ifetch |       28398     54.14%     54.14% |       24051     45.86%    100.00% (Unspecified)
system.caches.L1Cache_Controller.I.Ifetch::total        52449                       (Unspecified)
system.caches.L1Cache_Controller.I.Store |        3972     62.74%     62.74% |        2359     37.26%    100.00% (Unspecified)
system.caches.L1Cache_Controller.I.Store::total         6331                       (Unspecified)
system.caches.L1Cache_Controller.I.L1_Replacement |         991     47.24%     47.24% |        1107     52.76%    100.00% (Unspecified)
system.caches.L1Cache_Controller.I.L1_Replacement::total         2098                       (Unspecified)
system.caches.L1Cache_Controller.S.Load  |      423329     45.17%     45.17% |      513812     54.83%    100.00% (Unspecified)
system.caches.L1Cache_Controller.S.Load::total       937141                       (Unspecified)
system.caches.L1Cache_Controller.S.Ifetch |   728006968     50.08%     50.08% |   725752139     49.92%    100.00% (Unspecified)
system.caches.L1Cache_Controller.S.Ifetch::total   1453759107                       (Unspecified)
system.caches.L1Cache_Controller.S.Store |       13171     99.46%     99.46% |          71      0.54%    100.00% (Unspecified)
system.caches.L1Cache_Controller.S.Store::total        13242                       (Unspecified)
system.caches.L1Cache_Controller.S.Inv   |       34207     44.19%     44.19% |       43203     55.81%    100.00% (Unspecified)
system.caches.L1Cache_Controller.S.Inv::total        77410                       (Unspecified)
system.caches.L1Cache_Controller.S.L1_Replacement |       75494     64.34%     64.34% |       41849     35.66%    100.00% (Unspecified)
system.caches.L1Cache_Controller.S.L1_Replacement::total       117343                       (Unspecified)
system.caches.L1Cache_Controller.E.Load  |    68132714     50.15%     50.15% |    67735224     49.85%    100.00% (Unspecified)
system.caches.L1Cache_Controller.E.Load::total    135867938                       (Unspecified)
system.caches.L1Cache_Controller.E.Store |     1876098     50.10%     50.10% |     1868739     49.90%    100.00% (Unspecified)
system.caches.L1Cache_Controller.E.Store::total      3744837                       (Unspecified)
system.caches.L1Cache_Controller.E.Inv   |        4749     57.15%     57.15% |        3560     42.85%    100.00% (Unspecified)
system.caches.L1Cache_Controller.E.Inv::total         8309                       (Unspecified)
system.caches.L1Cache_Controller.E.L1_Replacement |     5650985     49.95%     49.95% |     5661233     50.05%    100.00% (Unspecified)
system.caches.L1Cache_Controller.E.L1_Replacement::total     11312218                       (Unspecified)
system.caches.L1Cache_Controller.E.Fwd_GETX |           1      0.46%      0.46% |         215     99.54%    100.00% (Unspecified)
system.caches.L1Cache_Controller.E.Fwd_GETX::total          216                       (Unspecified)
system.caches.L1Cache_Controller.E.Fwd_GETS |         808     23.69%     23.69% |        2603     76.31%    100.00% (Unspecified)
system.caches.L1Cache_Controller.E.Fwd_GETS::total         3411                       (Unspecified)
system.caches.L1Cache_Controller.M.Load  |    78248375     50.17%     50.17% |    77726286     49.83%    100.00% (Unspecified)
system.caches.L1Cache_Controller.M.Load::total    155974661                       (Unspecified)
system.caches.L1Cache_Controller.M.Store |    66852284     50.12%     50.12% |    66529878     49.88%    100.00% (Unspecified)
system.caches.L1Cache_Controller.M.Store::total    133382162                       (Unspecified)
system.caches.L1Cache_Controller.M.Inv   |        5987     63.01%     63.01% |        3514     36.99%    100.00% (Unspecified)
system.caches.L1Cache_Controller.M.Inv::total         9501                       (Unspecified)
system.caches.L1Cache_Controller.M.L1_Replacement |     4978676     49.91%     49.91% |     4996617     50.09%    100.00% (Unspecified)
system.caches.L1Cache_Controller.M.L1_Replacement::total      9975293                       (Unspecified)
system.caches.L1Cache_Controller.M.Fwd_GETX |           6     50.00%     50.00% |           6     50.00%    100.00% (Unspecified)
system.caches.L1Cache_Controller.M.Fwd_GETX::total           12                       (Unspecified)
system.caches.L1Cache_Controller.M.Fwd_GETS |       13463     99.48%     99.48% |          71      0.52%    100.00% (Unspecified)
system.caches.L1Cache_Controller.M.Fwd_GETS::total        13534                       (Unspecified)
system.caches.L1Cache_Controller.IS.Inv  |           0      0.00%      0.00% |           2    100.00%    100.00% (Unspecified)
system.caches.L1Cache_Controller.IS.Inv::total            2                       (Unspecified)
system.caches.L1Cache_Controller.IS.Data_Exclusive |     7536699     49.98%     49.98% |     7541777     50.02%    100.00% (Unspecified)
system.caches.L1Cache_Controller.IS.Data_Exclusive::total     15078476                       (Unspecified)
system.caches.L1Cache_Controller.IS.DataS_fromL1 |        2674     15.78%     15.78% |       14269     84.22%    100.00% (Unspecified)
system.caches.L1Cache_Controller.IS.DataS_fromL1::total        16943                       (Unspecified)
system.caches.L1Cache_Controller.IS.Data_all_Acks |      106180     60.78%     60.78% |       68517     39.22%    100.00% (Unspecified)
system.caches.L1Cache_Controller.IS.Data_all_Acks::total       174697                       (Unspecified)
system.caches.L1Cache_Controller.IM.Data |         475     99.79%     99.79% |           1      0.21%    100.00% (Unspecified)
system.caches.L1Cache_Controller.IM.Data::total          476                       (Unspecified)
system.caches.L1Cache_Controller.IM.Data_all_Acks |     3112514     49.83%     49.83% |     3134084     50.17%    100.00% (Unspecified)
system.caches.L1Cache_Controller.IM.Data_all_Acks::total      6246598                       (Unspecified)
system.caches.L1Cache_Controller.SM.Inv  |           0      0.00%      0.00% |           1    100.00%    100.00% (Unspecified)
system.caches.L1Cache_Controller.SM.Inv::total            1                       (Unspecified)
system.caches.L1Cache_Controller.SM.Ack  |       13171     99.47%     99.47% |          70      0.53%    100.00% (Unspecified)
system.caches.L1Cache_Controller.SM.Ack::total        13241                       (Unspecified)
system.caches.L1Cache_Controller.SM.Ack_all |       13646     99.48%     99.48% |          71      0.52%    100.00% (Unspecified)
system.caches.L1Cache_Controller.SM.Ack_all::total        13717                       (Unspecified)
system.caches.L1Cache_Controller.IS_I.DataS_fromL1 |           0      0.00%      0.00% |           2    100.00%    100.00% (Unspecified)
system.caches.L1Cache_Controller.IS_I.DataS_fromL1::total            2                       (Unspecified)
system.caches.L1Cache_Controller.M_I.WB_Ack |    10629661     49.93%     49.93% |    10657850     50.07%    100.00% (Unspecified)
system.caches.L1Cache_Controller.M_I.WB_Ack::total     21287511                       (Unspecified)
system.caches.Directory_Controller.Fetch     17563950      0.00%      0.00% (Unspecified)
system.caches.Directory_Controller.Data       8082466      0.00%      0.00% (Unspecified)
system.caches.Directory_Controller.Memory_Data     17563950      0.00%      0.00% (Unspecified)
system.caches.Directory_Controller.Memory_Ack      8082466      0.00%      0.00% (Unspecified)
system.caches.Directory_Controller.CleanReplacement      9350412      0.00%      0.00% (Unspecified)
system.caches.Directory_Controller.I.Fetch     17563950      0.00%      0.00% (Unspecified)
system.caches.Directory_Controller.M.Data      8082466      0.00%      0.00% (Unspecified)
system.caches.Directory_Controller.M.CleanReplacement      9350412      0.00%      0.00% (Unspecified)
system.caches.Directory_Controller.IM.Memory_Data     17563950      0.00%      0.00% (Unspecified)
system.caches.Directory_Controller.MI.Memory_Ack      8082466      0.00%      0.00% (Unspecified)
system.caches.L2Cache_Controller.L1_GET_INSTR |       16693     11.14%     11.14% |       23163     15.46%     26.60% |       18872     12.59%     39.19% |        6282      4.19%     43.38% |       13542      9.04%     52.42% |       19643     13.11%     65.53% |       23118     15.43%     80.96% |       28539     19.04%    100.00% (Unspecified)
system.caches.L2Cache_Controller.L1_GET_INSTR::total       149852                       (Unspecified)
system.caches.L2Cache_Controller.L1_GETS |     1896431     12.54%     12.54% |     1892488     12.51%     25.05% |     1888833     12.49%     37.54% |     1886272     12.47%     50.01% |     1888056     12.48%     62.49% |     1885789     12.47%     74.96% |     1899273     12.56%     87.52% |     1888287     12.48%    100.00% (Unspecified)
system.caches.L2Cache_Controller.L1_GETS::total     15125429                       (Unspecified)
system.caches.L2Cache_Controller.L1_GETX |      781690     12.51%     12.51% |      781047     12.50%     25.02% |      779761     12.48%     37.50% |      780244     12.49%     49.99% |      780108     12.49%     62.47% |      782238     12.52%     75.00% |      780747     12.50%     87.49% |      781299     12.51%    100.00% (Unspecified)
system.caches.L2Cache_Controller.L1_GETX::total      6247134                       (Unspecified)
system.caches.L2Cache_Controller.L1_UPGRADE |        3132     17.89%     17.89% |        1665      9.51%     27.41% |           1      0.01%     27.41% |           0      0.00%     27.41% |          35      0.20%     27.61% |           5      0.03%     27.64% |       12634     72.18%     99.82% |          31      0.18%    100.00% (Unspecified)
system.caches.L2Cache_Controller.L1_UPGRADE::total        17503                       (Unspecified)
system.caches.L2Cache_Controller.L1_PUTX |     2661743     12.50%     12.50% |     2662362     12.51%     25.01% |     2660292     12.50%     37.51% |     2660305     12.50%     50.00% |     2660396     12.50%     62.50% |     2661107     12.50%     75.00% |     2660343     12.50%     87.50% |     2660963     12.50%    100.00% (Unspecified)
system.caches.L2Cache_Controller.L1_PUTX::total     21287511                       (Unspecified)
system.caches.L2Cache_Controller.L2_Replacement |     1009408     12.50%     12.50% |     1009323     12.50%     25.00% |     1009371     12.50%     37.50% |     1009076     12.50%     50.00% |     1009199     12.50%     62.50% |     1009366     12.50%     75.00% |     1009320     12.50%     87.50% |     1009503     12.50%    100.00% (Unspecified)
system.caches.L2Cache_Controller.L2_Replacement::total      8074566                       (Unspecified)
system.caches.L2Cache_Controller.L2_Replacement_clean |     1169989     12.50%     12.50% |     1171011     12.51%     25.02% |     1169541     12.50%     37.51% |     1168806     12.49%     50.00% |     1169755     12.50%     62.50% |     1169955     12.50%     75.00% |     1169000     12.49%     87.50% |     1170255     12.50%    100.00% (Unspecified)
system.caches.L2Cache_Controller.L2_Replacement_clean::total      9358312                       (Unspecified)
system.caches.L2Cache_Controller.Mem_Data |     2195781     12.50%     12.50% |     2196718     12.51%     25.01% |     2195296     12.50%     37.51% |     2194266     12.49%     50.00% |     2195338     12.50%     62.50% |     2195705     12.50%     75.00% |     2194704     12.50%     87.50% |     2196142     12.50%    100.00% (Unspecified)
system.caches.L2Cache_Controller.Mem_Data::total     17563950                       (Unspecified)
system.caches.L2Cache_Controller.Mem_Ack |     2179397     12.50%     12.50% |     2180334     12.51%     25.01% |     2178912     12.50%     37.51% |     2177882     12.49%     50.00% |     2178954     12.50%     62.50% |     2179321     12.50%     75.00% |     2178320     12.50%     87.50% |     2179758     12.50%    100.00% (Unspecified)
system.caches.L2Cache_Controller.Mem_Ack::total     17432878                       (Unspecified)
system.caches.L2Cache_Controller.WB_Data |        4696     20.39%     20.39% |        2742     11.90%     32.29% |         414      1.80%     34.09% |        1223      5.31%     39.40% |         927      4.02%     43.42% |        1981      8.60%     52.02% |        9502     41.25%     93.27% |        1550      6.73%    100.00% (Unspecified)
system.caches.L2Cache_Controller.WB_Data::total        23035                       (Unspecified)
system.caches.L2Cache_Controller.WB_Data_clean |         545     15.98%     15.98% |         606     17.77%     33.74% |         557     16.33%     50.07% |         215      6.30%     56.38% |         474     13.90%     70.27% |         217      6.36%     76.63% |         281      8.24%     84.87% |         516     15.13%    100.00% (Unspecified)
system.caches.L2Cache_Controller.WB_Data_clean::total         3411                       (Unspecified)
system.caches.L2Cache_Controller.Ack     |        3937     13.58%     13.58% |        3877     13.37%     26.95% |        3803     13.12%     40.07% |        3023     10.43%     50.50% |        3807     13.13%     63.63% |        3786     13.06%     76.69% |        3266     11.27%     87.95% |        3493     12.05%    100.00% (Unspecified)
system.caches.L2Cache_Controller.Ack::total        28992                       (Unspecified)
system.caches.L2Cache_Controller.Ack_all |        5730     12.74%     12.74% |        6703     14.90%     27.64% |        5849     13.01%     40.65% |        4691     10.43%     51.08% |        5952     13.23%     64.31% |        5271     11.72%     76.04% |        5114     11.37%     87.41% |        5664     12.59%    100.00% (Unspecified)
system.caches.L2Cache_Controller.Ack_all::total        44974                       (Unspecified)
system.caches.L2Cache_Controller.Unblock |        4044     23.87%     23.87% |        2086     12.31%     36.18% |         558      3.29%     39.47% |         215      1.27%     40.74% |         510      3.01%     43.75% |         221      1.30%     45.05% |        8764     51.72%     96.77% |         547      3.23%    100.00% (Unspecified)
system.caches.L2Cache_Controller.Unblock::total        16945                       (Unspecified)
system.caches.L2Cache_Controller.Exclusive_Unblock |     2669929     12.51%     12.51% |     2669421     12.51%     25.02% |     2664403     12.49%     37.51% |     2664541     12.49%     49.99% |     2665202     12.49%     62.48% |     2666046     12.49%     74.98% |     2673309     12.53%     87.51% |     2665940     12.49%    100.00% (Unspecified)
system.caches.L2Cache_Controller.Exclusive_Unblock::total     21338791                       (Unspecified)
system.caches.L2Cache_Controller.NP.L1_GET_INSTR |        4096     12.93%     12.93% |        4375     13.81%     26.73% |        3833     12.10%     38.83% |        3543     11.18%     50.01% |        3934     12.42%     62.43% |        4170     13.16%     75.59% |        3684     11.63%     87.22% |        4051     12.78%    100.00% (Unspecified)
system.caches.L2Cache_Controller.NP.L1_GET_INSTR::total        31686                       (Unspecified)
system.caches.L2Cache_Controller.NP.L1_GETS |     1411764     12.50%     12.50% |     1412435     12.51%     25.01% |     1412128     12.50%     37.51% |     1411107     12.49%     50.00% |     1411902     12.50%     62.51% |     1411079     12.49%     75.00% |     1411291     12.50%     87.50% |     1412069     12.50%    100.00% (Unspecified)
system.caches.L2Cache_Controller.NP.L1_GETS::total     11293775                       (Unspecified)
system.caches.L2Cache_Controller.NP.L1_GETX |      779921     12.50%     12.50% |      779908     12.50%     25.00% |      779335     12.49%     37.50% |      779616     12.50%     49.99% |      779502     12.50%     62.49% |      780456     12.51%     75.00% |      779729     12.50%     87.50% |      780022     12.50%    100.00% (Unspecified)
system.caches.L2Cache_Controller.NP.L1_GETX::total      6238489                       (Unspecified)
system.caches.L2Cache_Controller.SS.L1_GET_INSTR |       11223     10.42%     10.42% |       17227     15.99%     26.41% |       13732     12.75%     39.16% |        1585      1.47%     40.63% |        8251      7.66%     48.29% |       14017     13.01%     61.31% |       18205     16.90%     78.21% |       23474     21.79%    100.00% (Unspecified)
system.caches.L2Cache_Controller.SS.L1_GET_INSTR::total       107714                       (Unspecified)
system.caches.L2Cache_Controller.SS.L1_GETS |        6410     31.18%     31.18% |        3089     15.03%     46.20% |        2813     13.68%     59.89% |        1300      6.32%     66.21% |        2034      9.89%     76.10% |        1269      6.17%     82.28% |        1102      5.36%     87.64% |        2542     12.36%    100.00% (Unspecified)
system.caches.L2Cache_Controller.SS.L1_GETS::total        20559                       (Unspecified)
system.caches.L2Cache_Controller.SS.L1_GETX |         366     76.89%     76.89% |           0      0.00%     76.89% |           0      0.00%     76.89% |           0      0.00%     76.89% |           1      0.21%     77.10% |           0      0.00%     77.10% |         109     22.90%    100.00% |           0      0.00%    100.00% (Unspecified)
system.caches.L2Cache_Controller.SS.L1_GETX::total          476                       (Unspecified)
system.caches.L2Cache_Controller.SS.L1_UPGRADE |        3131     23.65%     23.65% |        1665     12.57%     36.22% |           1      0.01%     36.23% |           0      0.00%     36.23% |          35      0.26%     36.49% |           5      0.04%     36.53% |        8373     63.24%     99.77% |          31      0.23%    100.00% (Unspecified)
system.caches.L2Cache_Controller.SS.L1_UPGRADE::total        13241                       (Unspecified)
system.caches.L2Cache_Controller.SS.L2_Replacement |           2     33.33%     33.33% |           0      0.00%     33.33% |           0      0.00%     33.33% |           0      0.00%     33.33% |           2     33.33%     66.67% |           1     16.67%     83.33% |           1     16.67%    100.00% |           0      0.00%    100.00% (Unspecified)
system.caches.L2Cache_Controller.SS.L2_Replacement::total            6                       (Unspecified)
system.caches.L2Cache_Controller.SS.L2_Replacement_clean |        5010     13.67%     13.67% |        5034     13.73%     27.40% |        4745     12.94%     40.34% |        3935     10.73%     51.08% |        4579     12.49%     63.57% |        4573     12.47%     76.04% |        3994     10.90%     86.94% |        4789     13.06%    100.00% (Unspecified)
system.caches.L2Cache_Controller.SS.L2_Replacement_clean::total        36659                       (Unspecified)
system.caches.L2Cache_Controller.M.L1_GETS |      473772     12.51%     12.51% |      474575     12.53%     25.04% |      472922     12.49%     37.53% |      473413     12.50%     50.03% |      473379     12.50%     62.53% |      472970     12.49%     75.02% |      472992     12.49%     87.51% |      472842     12.49%    100.00% (Unspecified)
system.caches.L2Cache_Controller.M.L1_GETS::total      3786865                       (Unspecified)
system.caches.L2Cache_Controller.M.L1_GETX |        1205     15.29%     15.29% |        1126     14.29%     29.58% |         426      5.41%     34.98% |         620      7.87%     42.85% |         605      7.68%     50.53% |        1770     22.46%     72.99% |         872     11.06%     84.05% |        1257     15.95%    100.00% (Unspecified)
system.caches.L2Cache_Controller.M.L1_GETX::total         7881                       (Unspecified)
system.caches.L2Cache_Controller.M.L2_Replacement |     1009197     12.50%     12.50% |     1009154     12.50%     25.00% |     1009299     12.50%     37.50% |     1008919     12.50%     50.00% |     1009036     12.50%     62.50% |     1008972     12.50%     75.00% |     1009089     12.50%     87.50% |     1009267     12.50%    100.00% (Unspecified)
system.caches.L2Cache_Controller.M.L2_Replacement::total      8072933                       (Unspecified)
system.caches.L2Cache_Controller.M.L2_Replacement_clean |     1163273     12.50%     12.50% |     1163215     12.50%     25.00% |     1163351     12.50%     37.50% |     1163049     12.50%     50.00% |     1163075     12.50%     62.50% |     1163101     12.50%     75.00% |     1163098     12.50%     87.50% |     1163308     12.50%    100.00% (Unspecified)
system.caches.L2Cache_Controller.M.L2_Replacement_clean::total      9305470                       (Unspecified)
system.caches.L2Cache_Controller.MT.L1_GETS |        4044     23.87%     23.87% |        2086     12.31%     36.18% |         558      3.29%     39.47% |         215      1.27%     40.74% |         510      3.01%     43.75% |         221      1.30%     45.05% |        8764     51.72%     96.77% |         547      3.23%    100.00% (Unspecified)
system.caches.L2Cache_Controller.MT.L1_GETS::total        16945                       (Unspecified)
system.caches.L2Cache_Controller.MT.L1_GETX |         197     86.40%     86.40% |           7      3.07%     89.47% |           0      0.00%     89.47% |           1      0.44%     89.91% |           0      0.00%     89.91% |           1      0.44%     90.35% |          21      9.21%     99.56% |           1      0.44%    100.00% (Unspecified)
system.caches.L2Cache_Controller.MT.L1_GETX::total          228                       (Unspecified)
system.caches.L2Cache_Controller.MT.L1_PUTX |     2661743     12.50%     12.50% |     2662362     12.51%     25.01% |     2660292     12.50%     37.51% |     2660305     12.50%     50.00% |     2660396     12.50%     62.50% |     2661107     12.50%     75.00% |     2660343     12.50%     87.50% |     2660963     12.50%    100.00% (Unspecified)
system.caches.L2Cache_Controller.MT.L1_PUTX::total     21287511                       (Unspecified)
system.caches.L2Cache_Controller.MT.L2_Replacement |         209     12.85%     12.85% |         169     10.39%     23.23% |          72      4.43%     27.66% |         157      9.65%     37.31% |         161      9.90%     47.20% |         393     24.15%     71.36% |         230     14.14%     85.49% |         236     14.51%    100.00% (Unspecified)
system.caches.L2Cache_Controller.MT.L2_Replacement::total         1627                       (Unspecified)
system.caches.L2Cache_Controller.MT.L2_Replacement_clean |        1706     10.54%     10.54% |        2762     17.07%     27.61% |        1445      8.93%     36.54% |        1822     11.26%     47.80% |        2101     12.98%     60.78% |        2281     14.10%     74.87% |        1908     11.79%     86.67% |        2158     13.33%    100.00% (Unspecified)
system.caches.L2Cache_Controller.MT.L2_Replacement_clean::total        16183                       (Unspecified)
system.caches.L2Cache_Controller.M_I.L1_GET_INSTR |           1      2.38%      2.38% |           6     14.29%     16.67% |           3      7.14%     23.81% |           9     21.43%     45.24% |           5     11.90%     57.14% |           5     11.90%     69.05% |          10     23.81%     92.86% |           3      7.14%    100.00% (Unspecified)
system.caches.L2Cache_Controller.M_I.L1_GET_INSTR::total           42                       (Unspecified)
system.caches.L2Cache_Controller.M_I.L1_GETS |          11     17.74%     17.74% |           6      9.68%     27.42% |           0      0.00%     27.42% |          15     24.19%     51.61% |           8     12.90%     64.52% |          10     16.13%     80.65% |           8     12.90%     93.55% |           4      6.45%    100.00% (Unspecified)
system.caches.L2Cache_Controller.M_I.L1_GETS::total           62                       (Unspecified)
system.caches.L2Cache_Controller.M_I.L1_GETX |           1      1.72%      1.72% |           4      6.90%      8.62% |           0      0.00%      8.62% |           7     12.07%     20.69% |           0      0.00%     20.69% |          11     18.97%     39.66% |          16     27.59%     67.24% |          19     32.76%    100.00% (Unspecified)
system.caches.L2Cache_Controller.M_I.L1_GETX::total           58                       (Unspecified)
system.caches.L2Cache_Controller.M_I.Mem_Ack |     2179397     12.50%     12.50% |     2180334     12.51%     25.01% |     2178912     12.50%     37.51% |     2177882     12.49%     50.00% |     2178954     12.50%     62.50% |     2179321     12.50%     75.00% |     2178320     12.50%     87.50% |     2179758     12.50%    100.00% (Unspecified)
system.caches.L2Cache_Controller.M_I.Mem_Ack::total     17432878                       (Unspecified)
system.caches.L2Cache_Controller.MT_I.WB_Data |         205     12.80%     12.80% |         166     10.37%     23.17% |          71      4.43%     27.61% |         156      9.74%     37.35% |         158      9.87%     47.22% |         391     24.42%     71.64% |         221     13.80%     85.45% |         233     14.55%    100.00% (Unspecified)
system.caches.L2Cache_Controller.MT_I.WB_Data::total         1601                       (Unspecified)
system.caches.L2Cache_Controller.MT_I.Ack_all |           4     15.38%     15.38% |           3     11.54%     26.92% |           1      3.85%     30.77% |           1      3.85%     34.62% |           3     11.54%     46.15% |           2      7.69%     53.85% |           9     34.62%     88.46% |           3     11.54%    100.00% (Unspecified)
system.caches.L2Cache_Controller.MT_I.Ack_all::total           26                       (Unspecified)
system.caches.L2Cache_Controller.MCT_I.WB_Data |         992     12.56%     12.56% |        1096     13.87%     26.43% |         342      4.33%     30.76% |        1067     13.51%     44.27% |         733      9.28%     53.54% |        1586     20.08%     73.62% |         798     10.10%     83.72% |        1286     16.28%    100.00% (Unspecified)
system.caches.L2Cache_Controller.MCT_I.WB_Data::total         7900                       (Unspecified)
system.caches.L2Cache_Controller.MCT_I.Ack_all |         714      8.62%      8.62% |        1666     20.11%     28.73% |        1103     13.32%     42.05% |         755      9.12%     51.17% |        1368     16.52%     67.68% |         695      8.39%     76.07% |        1110     13.40%     89.47% |         872     10.53%    100.00% (Unspecified)
system.caches.L2Cache_Controller.MCT_I.Ack_all::total         8283                       (Unspecified)
system.caches.L2Cache_Controller.I_I.Ack |        3935     13.58%     13.58% |        3877     13.38%     26.95% |        3803     13.12%     40.07% |        3023     10.43%     50.50% |        3805     13.13%     63.63% |        3785     13.06%     76.69% |        3265     11.26%     87.95% |        3493     12.05%    100.00% (Unspecified)
system.caches.L2Cache_Controller.I_I.Ack::total        28986                       (Unspecified)
system.caches.L2Cache_Controller.I_I.Ack_all |        5010     13.67%     13.67% |        5034     13.73%     27.40% |        4745     12.94%     40.34% |        3935     10.73%     51.08% |        4579     12.49%     63.57% |        4573     12.47%     76.04% |        3994     10.90%     86.94% |        4789     13.06%    100.00% (Unspecified)
system.caches.L2Cache_Controller.I_I.Ack_all::total        36659                       (Unspecified)
system.caches.L2Cache_Controller.S_I.Ack |           2     33.33%     33.33% |           0      0.00%     33.33% |           0      0.00%     33.33% |           0      0.00%     33.33% |           2     33.33%     66.67% |           1     16.67%     83.33% |           1     16.67%    100.00% |           0      0.00%    100.00% (Unspecified)
system.caches.L2Cache_Controller.S_I.Ack::total            6                       (Unspecified)
system.caches.L2Cache_Controller.S_I.Ack_all |           2     33.33%     33.33% |           0      0.00%     33.33% |           0      0.00%     33.33% |           0      0.00%     33.33% |           2     33.33%     66.67% |           1     16.67%     83.33% |           1     16.67%    100.00% |           0      0.00%    100.00% (Unspecified)
system.caches.L2Cache_Controller.S_I.Ack_all::total            6                       (Unspecified)
system.caches.L2Cache_Controller.ISS.L1_GETS |         427     19.73%     19.73% |         295     13.63%     33.36% |         409     18.90%     52.26% |         216      9.98%     62.25% |         222     10.26%     72.50% |         235     10.86%     83.36% |          78      3.60%     86.97% |         282     13.03%    100.00% (Unspecified)
system.caches.L2Cache_Controller.ISS.L1_GETS::total         2164                       (Unspecified)
system.caches.L2Cache_Controller.ISS.Mem_Data |     1411337     12.50%     12.50% |     1412140     12.51%     25.01% |     1411719     12.50%     37.51% |     1410891     12.50%     50.00% |     1411680     12.50%     62.50% |     1410844     12.49%     75.00% |     1411213     12.50%     87.50% |     1411787     12.50%    100.00% (Unspecified)
system.caches.L2Cache_Controller.ISS.Mem_Data::total     11291611                       (Unspecified)
system.caches.L2Cache_Controller.IS.L1_GET_INSTR |        1373     13.19%     13.19% |        1555     14.94%     28.13% |        1304     12.53%     40.65% |        1145     11.00%     51.65% |        1352     12.99%     64.64% |        1451     13.94%     78.58% |        1219     11.71%     90.29% |        1011      9.71%    100.00% (Unspecified)
system.caches.L2Cache_Controller.IS.L1_GET_INSTR::total        10410                       (Unspecified)
system.caches.L2Cache_Controller.IS.Mem_Data |        4523     13.36%     13.36% |        4670     13.80%     27.16% |        4242     12.53%     39.69% |        3759     11.10%     50.79% |        4156     12.28%     63.07% |        4405     13.01%     76.09% |        3762     11.11%     87.20% |        4333     12.80%    100.00% (Unspecified)
system.caches.L2Cache_Controller.IS.Mem_Data::total        33850                       (Unspecified)
system.caches.L2Cache_Controller.IM.L1_GETX |           0      0.00%      0.00% |           2    100.00%    100.00% |           0      0.00%    100.00% |           0      0.00%    100.00% |           0      0.00%    100.00% |           0      0.00%    100.00% |           0      0.00%    100.00% |           0      0.00%    100.00% (Unspecified)
system.caches.L2Cache_Controller.IM.L1_GETX::total            2                       (Unspecified)
system.caches.L2Cache_Controller.IM.Mem_Data |      779921     12.50%     12.50% |      779908     12.50%     25.00% |      779335     12.49%     37.50% |      779616     12.50%     49.99% |      779502     12.50%     62.49% |      780456     12.51%     75.00% |      779729     12.50%     87.50% |      780022     12.50%    100.00% (Unspecified)
system.caches.L2Cache_Controller.IM.Mem_Data::total      6238489                       (Unspecified)
system.caches.L2Cache_Controller.SS_MB.L1_GETS |           2      0.04%      0.04% |           0      0.00%      0.04% |           0      0.00%      0.04% |           0      0.00%      0.04% |           0      0.00%      0.04% |           0      0.00%      0.04% |        5036     99.96%    100.00% |           0      0.00%    100.00% (Unspecified)
system.caches.L2Cache_Controller.SS_MB.L1_GETS::total         5038                       (Unspecified)
system.caches.L2Cache_Controller.SS_MB.L1_UPGRADE |           1    100.00%    100.00% |           0      0.00%    100.00% |           0      0.00%    100.00% |           0      0.00%    100.00% |           0      0.00%    100.00% |           0      0.00%    100.00% |           0      0.00%    100.00% |           0      0.00%    100.00% (Unspecified)
system.caches.L2Cache_Controller.SS_MB.L1_UPGRADE::total            1                       (Unspecified)
system.caches.L2Cache_Controller.SS_MB.Exclusive_Unblock |        3497     25.49%     25.49% |        1665     12.14%     37.63% |           1      0.01%     37.64% |           0      0.00%     37.64% |          36      0.26%     37.90% |           5      0.04%     37.94% |        8482     61.84%     99.77% |          31      0.23%    100.00% (Unspecified)
system.caches.L2Cache_Controller.SS_MB.Exclusive_Unblock::total        13717                       (Unspecified)
system.caches.L2Cache_Controller.MT_MB.L1_GETS |           1      4.76%      4.76% |           2      9.52%     14.29% |           3     14.29%     28.57% |           6     28.57%     57.14% |           1      4.76%     61.90% |           5     23.81%     85.71% |           2      9.52%     95.24% |           1      4.76%    100.00% (Unspecified)
system.caches.L2Cache_Controller.MT_MB.L1_GETS::total           21                       (Unspecified)
system.caches.L2Cache_Controller.MT_MB.Exclusive_Unblock |     2666432     12.50%     12.50% |     2667756     12.51%     25.01% |     2664402     12.49%     37.51% |     2664541     12.49%     50.00% |     2665166     12.50%     62.50% |     2666041     12.50%     75.00% |     2664827     12.50%     87.50% |     2665909     12.50%    100.00% (Unspecified)
system.caches.L2Cache_Controller.MT_MB.Exclusive_Unblock::total     21325074                       (Unspecified)
system.caches.L2Cache_Controller.MT_IIB.WB_Data |        3499     25.85%     25.85% |        1480     10.94%     36.79% |           1      0.01%     36.80% |           0      0.00%     36.80% |          36      0.27%     37.06% |           4      0.03%     37.09% |        8483     62.68%     99.77% |          31      0.23%    100.00% (Unspecified)
system.caches.L2Cache_Controller.MT_IIB.WB_Data::total        13534                       (Unspecified)
system.caches.L2Cache_Controller.MT_IIB.WB_Data_clean |         545     15.98%     15.98% |         606     17.77%     33.74% |         557     16.33%     50.07% |         215      6.30%     56.38% |         474     13.90%     70.27% |         217      6.36%     76.63% |         281      8.24%     84.87% |         516     15.13%    100.00% (Unspecified)
system.caches.L2Cache_Controller.MT_IIB.WB_Data_clean::total         3411                       (Unspecified)
system.caches.L2Cache_Controller.MT_SB.L1_UPGRADE |           0      0.00%      0.00% |           0      0.00%      0.00% |           0      0.00%      0.00% |           0      0.00%      0.00% |           0      0.00%      0.00% |           0      0.00%      0.00% |        4261    100.00%    100.00% |           0      0.00%    100.00% (Unspecified)
system.caches.L2Cache_Controller.MT_SB.L1_UPGRADE::total         4261                       (Unspecified)
system.caches.L2Cache_Controller.MT_SB.Unblock |        4044     23.87%     23.87% |        2086     12.31%     36.18% |         558      3.29%     39.47% |         215      1.27%     40.74% |         510      3.01%     43.75% |         221      1.30%     45.05% |        8764     51.72%     96.77% |         547      3.23%    100.00% (Unspecified)
system.caches.L2Cache_Controller.MT_SB.Unblock::total        16945                       (Unspecified)
system.caches.RequestType.LD.latency_hist_seqr::bucket_size          512                       (Unspecified)
system.caches.RequestType.LD.latency_hist_seqr::max_bucket         5119                       (Unspecified)
system.caches.RequestType.LD.latency_hist_seqr::samples    307900048                       (Unspecified)
system.caches.RequestType.LD.latency_hist_seqr::mean    25.720751                       (Unspecified)
system.caches.RequestType.LD.latency_hist_seqr::gmean     1.309931                       (Unspecified)
system.caches.RequestType.LD.latency_hist_seqr::stdev   136.267825                       (Unspecified)
system.caches.RequestType.LD.latency_hist_seqr |   300333764     97.54%     97.54% |     6976881      2.27%     99.81% |      304843      0.10%     99.91% |      197805      0.06%     99.97% |       83227      0.03%    100.00% |        3469      0.00%    100.00% |          58      0.00%    100.00% |           1      0.00%    100.00% |           0      0.00%    100.00% |           0      0.00%    100.00% (Unspecified)
system.caches.RequestType.LD.latency_hist_seqr::total    307900048                       (Unspecified)
system.caches.RequestType.LD.hit_latency_hist_seqr::bucket_size            1                       (Unspecified)
system.caches.RequestType.LD.hit_latency_hist_seqr::max_bucket            9                       (Unspecified)
system.caches.RequestType.LD.hit_latency_hist_seqr::samples    292779740                       (Unspecified)
system.caches.RequestType.LD.hit_latency_hist_seqr::mean            1                       (Unspecified)
system.caches.RequestType.LD.hit_latency_hist_seqr::gmean            1                       (Unspecified)
system.caches.RequestType.LD.hit_latency_hist_seqr |           0      0.00%      0.00% |   292779740    100.00%    100.00% |           0      0.00%    100.00% |           0      0.00%    100.00% |           0      0.00%    100.00% |           0      0.00%    100.00% |           0      0.00%    100.00% |           0      0.00%    100.00% |           0      0.00%    100.00% |           0      0.00%    100.00% (Unspecified)
system.caches.RequestType.LD.hit_latency_hist_seqr::total    292779740                       (Unspecified)
system.caches.RequestType.LD.miss_latency_hist_seqr::bucket_size          512                       (Unspecified)
[...]
system.timingCpu0.exec_context.thread_0.statExecutedInstType::SimdSha1Hash2            0      0.00%     70.14% # Class of executed instruction. (Count)
system.timingCpu0.exec_context.thread_0.statExecutedInstType::SimdSha256Hash            0      0.00%     70.14% # Class of executed instruction. (Count)
system.timingCpu0.exec_context.thread_0.statExecutedInstType::SimdSha256Hash2            0      0.00%     70.14% # Class of executed instruction. (Count)
system.timingCpu0.exec_context.thread_0.statExecutedInstType::SimdShaSigma2            0      0.00%     70.14% # Class of executed instruction. (Count)
system.timingCpu0.exec_context.thread_0.statExecutedInstType::SimdShaSigma3            0      0.00%     70.14% # Class of executed instruction. (Count)
system.timingCpu0.exec_context.thread_0.statExecutedInstType::SimdPredAlu            0      0.00%     70.14% # Class of executed instruction. (Count)
system.timingCpu0.exec_context.thread_0.statExecutedInstType::MemRead      2006092      0.27%     70.41% # Class of executed instruction. (Count)
system.timingCpu0.exec_context.thread_0.statExecutedInstType::MemWrite      1095540      0.14%     70.55% # Class of executed instruction. (Count)
system.timingCpu0.exec_context.thread_0.statExecutedInstType::FloatMemRead    152234765     20.11%     90.67% # Class of executed instruction. (Count)
system.timingCpu0.exec_context.thread_0.statExecutedInstType::FloatMemWrite     70638240      9.33%    100.00% # Class of executed instruction. (Count)
system.timingCpu0.exec_context.thread_0.statExecutedInstType::IprAccess            0      0.00%    100.00% # Class of executed instruction. (Count)
system.timingCpu0.exec_context.thread_0.statExecutedInstType::InstPrefetch            0      0.00%    100.00% # Class of executed instruction. (Count)
system.timingCpu0.exec_context.thread_0.statExecutedInstType::total    756836204                       # Class of executed instruction. (Count)
system.timingCpu0.mmu.dtb.rdAccesses        154293498                       # TLB accesses on read requests (Count)
system.timingCpu0.mmu.dtb.wrAccesses         71743389                       # TLB accesses on write requests (Count)
system.timingCpu0.mmu.dtb.rdMisses              52668                       # TLB misses on read requests (Count)
system.timingCpu0.mmu.dtb.wrMisses               9630                       # TLB misses on write requests (Count)
system.timingCpu0.mmu.dtb.walker.power_state.pwrStateResidencyTicks::UNDEFINED 20911590733250                       # Cumulative time (in ticks) in various power states (Tick)
system.timingCpu0.mmu.itb.rdAccesses                0                       # TLB accesses on read requests (Count)
system.timingCpu0.mmu.itb.wrAccesses        728103451                       # TLB accesses on write requests (Count)
system.timingCpu0.mmu.itb.rdMisses                  0                       # TLB misses on read requests (Count)
system.timingCpu0.mmu.itb.wrMisses               2799                       # TLB misses on write requests (Count)
system.timingCpu0.mmu.itb.walker.power_state.pwrStateResidencyTicks::UNDEFINED 20911590733250                       # Cumulative time (in ticks) in various power states (Tick)
system.timingCpu0.power_state.numTransitions           10                       # Number of power state transitions (Count)
system.timingCpu0.power_state.ticksClkGated::samples            5                       # Distribution of time spent in the clock gated state (Tick)
system.timingCpu0.power_state.ticksClkGated::mean    967723450                       # Distribution of time spent in the clock gated state (Tick)
system.timingCpu0.power_state.ticksClkGated::stdev 44053499.433363                       # Distribution of time spent in the clock gated state (Tick)
system.timingCpu0.power_state.ticksClkGated::1000-5e+10            5    100.00%    100.00% # Distribution of time spent in the clock gated state (Tick)
system.timingCpu0.power_state.ticksClkGated::min_value    891289250                       # Distribution of time spent in the clock gated state (Tick)
system.timingCpu0.power_state.ticksClkGated::max_value    997239250                       # Distribution of time spent in the clock gated state (Tick)
system.timingCpu0.power_state.ticksClkGated::total            5                       # Distribution of time spent in the clock gated state (Tick)
system.timingCpu0.power_state.pwrStateResidencyTicks::ON 880643405250                       # Cumulative time (in ticks) in various power states (Tick)
system.timingCpu0.power_state.pwrStateResidencyTicks::CLK_GATED   4838617250                       # Cumulative time (in ticks) in various power states (Tick)
system.timingCpu0.power_state.pwrStateResidencyTicks::OFF 20026108710750                       # Cumulative time (in ticks) in various power states (Tick)
system.timingCpu0.thread_0.numInsts                 0                       # Number of Instructions committed (Count)
system.timingCpu0.thread_0.numOps                   0                       # Number of Ops committed (Count)
system.timingCpu0.thread_0.numMemRefs               0                       # Number of Memory References (Count)
system.timingCpu1.numCycles                8000000000                       # Number of cpu cycles simulated (Cycle)
system.timingCpu1.numWorkItemsStarted               0                       # Number of work items this cpu started (Count)
system.timingCpu1.numWorkItemsCompleted             0                       # Number of work items this cpu completed (Count)
system.timingCpu1.exec_context.thread_0.numInsts    470648712                       # Number of instructions committed (Count)
system.timingCpu1.exec_context.thread_0.numOps    751568420                       # Number of ops (including micro ops) committed (Count)
system.timingCpu1.exec_context.thread_0.numIntAluAccesses    282973188                       # Number of integer alu accesses (Count)
system.timingCpu1.exec_context.thread_0.numFpAluAccesses    691050776                       # Number of float alu accesses (Count)
system.timingCpu1.exec_context.thread_0.numVecAluAccesses            0                       # Number of vector alu accesses (Count)
system.timingCpu1.exec_context.thread_0.numCallsReturns       310590                       # Number of times a function call or return occured (Count)
system.timingCpu1.exec_context.thread_0.numCondCtrlInsts      5990135                       # Number of instructions that are conditional controls (Count)
system.timingCpu1.exec_context.thread_0.numIntInsts    282973188                       # Number of integer instructions (Count)
system.timingCpu1.exec_context.thread_0.numFpInsts    691050776                       # Number of float instructions (Count)
system.timingCpu1.exec_context.thread_0.numVecInsts            0                       # Number of vector instructions (Count)
system.timingCpu1.exec_context.thread_0.numIntRegReads    285913067                       # Number of times the integer registers were read (Count)
system.timingCpu1.exec_context.thread_0.numIntRegWrites     47213356                       # Number of times the integer registers were written (Count)
system.timingCpu1.exec_context.thread_0.numFpRegReads   1101526252                       # Number of times the floating registers were read (Count)
system.timingCpu1.exec_context.thread_0.numFpRegWrites    620303932                       # Number of times the floating registers were written (Count)
system.timingCpu1.exec_context.thread_0.numVecRegReads            0                       # Number of times the vector registers were read (Count)
system.timingCpu1.exec_context.thread_0.numVecRegWrites            0                       # Number of times the vector registers were written (Count)
system.timingCpu1.exec_context.thread_0.numVecPredRegReads            0                       # Number of times the predicate registers were read (Count)
system.timingCpu1.exec_context.thread_0.numVecPredRegWrites            0                       # Number of times the predicate registers were written (Count)
system.timingCpu1.exec_context.thread_0.numCCRegReads     31608428                       # Number of times the CC registers were read (Count)
system.timingCpu1.exec_context.thread_0.numCCRegWrites     42454723                       # Number of times the CC registers were written (Count)
system.timingCpu1.exec_context.thread_0.numMiscRegReads    237886407                       # Number of times the Misc registers were read (Count)
system.timingCpu1.exec_context.thread_0.numMiscRegWrites        68451                       # Number of times the Misc registers were written (Count)
system.timingCpu1.exec_context.thread_0.numMemRefs    224858209                       # Number of memory refs (Count)
system.timingCpu1.exec_context.thread_0.numLoadInsts    153408688                       # Number of load instructions (Count)
system.timingCpu1.exec_context.thread_0.numStoreInsts     71449521                       # Number of store instructions (Count)
system.timingCpu1.exec_context.thread_0.numIdleCycles            0                       # Number of idle cycles (Cycle)
system.timingCpu1.exec_context.thread_0.numBusyCycles   8000000000                       # Number of busy cycles (Cycle)
system.timingCpu1.exec_context.thread_0.notIdleFraction            1                       # Percentage of non-idle cycles (Ratio)
system.timingCpu1.exec_context.thread_0.idleFraction            0                       # Percentage of idle cycles (Ratio)
system.timingCpu1.exec_context.thread_0.numBranches      6480920                       # Number of branches fetched (Count)
system.timingCpu1.exec_context.thread_0.statExecutedInstType::No_OpClass        47442      0.01%      0.01% # Class of executed instruction. (Count)
system.timingCpu1.exec_context.thread_0.statExecutedInstType::IntAlu    220849434     29.39%     29.39% # Class of executed instruction. (Count)
system.timingCpu1.exec_context.thread_0.statExecutedInstType::IntMult        45494      0.01%     29.40% # Class of executed instruction. (Count)
system.timingCpu1.exec_context.thread_0.statExecutedInstType::IntDiv        86629      0.01%     29.41% # Class of executed instruction. (Count)
system.timingCpu1.exec_context.thread_0.statExecutedInstType::FloatAdd     69792365      9.29%     38.70% # Class of executed instruction. (Count)
system.timingCpu1.exec_context.thread_0.statExecutedInstType::FloatCmp            0      0.00%     38.70% # Class of executed instruction. (Count)
system.timingCpu1.exec_context.thread_0.statExecutedInstType::FloatCvt           48      0.00%     38.70% # Class of executed instruction. (Count)
system.timingCpu1.exec_context.thread_0.statExecutedInstType::FloatMult            0      0.00%     38.70% # Class of executed instruction. (Count)
system.timingCpu1.exec_context.thread_0.statExecutedInstType::FloatMultAcc            0      0.00%     38.70% # Class of executed instruction. (Count)
system.timingCpu1.exec_context.thread_0.statExecutedInstType::FloatDiv            0      0.00%     38.70% # Class of executed instruction. (Count)
system.timingCpu1.exec_context.thread_0.statExecutedInstType::FloatMisc            0      0.00%     38.70% # Class of executed instruction. (Count)
system.timingCpu1.exec_context.thread_0.statExecutedInstType::FloatSqrt            0      0.00%     38.70% # Class of executed instruction. (Count)
system.timingCpu1.exec_context.thread_0.statExecutedInstType::SimdAdd            0      0.00%     38.70% # Class of executed instruction. (Count)
system.timingCpu1.exec_context.thread_0.statExecutedInstType::SimdAddAcc            0      0.00%     38.70% # Class of executed instruction. (Count)
system.timingCpu1.exec_context.thread_0.statExecutedInstType::SimdAlu            0      0.00%     38.70% # Class of executed instruction. (Count)
system.timingCpu1.exec_context.thread_0.statExecutedInstType::SimdCmp            0      0.00%     38.70% # Class of executed instruction. (Count)
system.timingCpu1.exec_context.thread_0.statExecutedInstType::SimdCvt            0      0.00%     38.70% # Class of executed instruction. (Count)
system.timingCpu1.exec_context.thread_0.statExecutedInstType::SimdMisc            0      0.00%     38.70% # Class of executed instruction. (Count)
system.timingCpu1.exec_context.thread_0.statExecutedInstType::SimdMult            0      0.00%     38.70% # Class of executed instruction. (Count)
system.timingCpu1.exec_context.thread_0.statExecutedInstType::SimdMultAcc            0      0.00%     38.70% # Class of executed instruction. (Count)
system.timingCpu1.exec_context.thread_0.statExecutedInstType::SimdShift            0      0.00%     38.70% # Class of executed instruction. (Count)
system.timingCpu1.exec_context.thread_0.statExecutedInstType::SimdShiftAcc            0      0.00%     38.70% # Class of executed instruction. (Count)
system.timingCpu1.exec_context.thread_0.statExecutedInstType::SimdDiv            0      0.00%     38.70% # Class of executed instruction. (Count)
system.timingCpu1.exec_context.thread_0.statExecutedInstType::SimdSqrt            0      0.00%     38.70% # Class of executed instruction. (Count)
system.timingCpu1.exec_context.thread_0.statExecutedInstType::SimdFloatAdd    128401769     17.08%     55.78% # Class of executed instruction. (Count)
system.timingCpu1.exec_context.thread_0.statExecutedInstType::SimdFloatAlu            0      0.00%     55.78% # Class of executed instruction. (Count)
system.timingCpu1.exec_context.thread_0.statExecutedInstType::SimdFloatCmp            0      0.00%     55.78% # Class of executed instruction. (Count)
system.timingCpu1.exec_context.thread_0.statExecutedInstType::SimdFloatCvt            0      0.00%     55.78% # Class of executed instruction. (Count)
system.timingCpu1.exec_context.thread_0.statExecutedInstType::SimdFloatDiv      2033936      0.27%     56.05% # Class of executed instruction. (Count)
system.timingCpu1.exec_context.thread_0.statExecutedInstType::SimdFloatMisc            0      0.00%     56.05% # Class of executed instruction. (Count)
system.timingCpu1.exec_context.thread_0.statExecutedInstType::SimdFloatMult    103419158     13.76%     69.81% # Class of executed instruction. (Count)
system.timingCpu1.exec_context.thread_0.statExecutedInstType::SimdFloatMultAcc            0      0.00%     69.81% # Class of executed instruction. (Count)
system.timingCpu1.exec_context.thread_0.statExecutedInstType::SimdFloatSqrt      2033936      0.27%     70.08% # Class of executed instruction. (Count)
system.timingCpu1.exec_context.thread_0.statExecutedInstType::SimdReduceAdd            0      0.00%     70.08% # Class of executed instruction. (Count)
system.timingCpu1.exec_context.thread_0.statExecutedInstType::SimdReduceAlu            0      0.00%     70.08% # Class of executed instruction. (Count)
system.timingCpu1.exec_context.thread_0.statExecutedInstType::SimdReduceCmp            0      0.00%     70.08% # Class of executed instruction. (Count)
system.timingCpu1.exec_context.thread_0.statExecutedInstType::SimdFloatReduceAdd            0      0.00%     70.08% # Class of executed instruction. (Count)
system.timingCpu1.exec_context.thread_0.statExecutedInstType::SimdFloatReduceCmp            0      0.00%     70.08% # Class of executed instruction. (Count)
system.timingCpu1.exec_context.thread_0.statExecutedInstType::SimdAes            0      0.00%     70.08% # Class of executed instruction. (Count)
system.timingCpu1.exec_context.thread_0.statExecutedInstType::SimdAesMix            0      0.00%     70.08% # Class of executed instruction. (Count)
system.timingCpu1.exec_context.thread_0.statExecutedInstType::SimdSha1Hash            0      0.00%     70.08% # Class of executed instruction. (Count)
system.timingCpu1.exec_context.thread_0.statExecutedInstType::SimdSha1Hash2            0      0.00%     70.08% # Class of executed instruction. (Count)
system.timingCpu1.exec_context.thread_0.statExecutedInstType::SimdSha256Hash            0      0.00%     70.08% # Class of executed instruction. (Count)
system.timingCpu1.exec_context.thread_0.statExecutedInstType::SimdSha256Hash2            0      0.00%     70.08% # Class of executed instruction. (Count)
system.timingCpu1.exec_context.thread_0.statExecutedInstType::SimdShaSigma2            0      0.00%     70.08% # Class of executed instruction. (Count)
system.timingCpu1.exec_context.thread_0.statExecutedInstType::SimdShaSigma3            0      0.00%     70.08% # Class of executed instruction. (Count)
system.timingCpu1.exec_context.thread_0.statExecutedInstType::SimdPredAlu            0      0.00%     70.08% # Class of executed instruction. (Count)
system.timingCpu1.exec_context.thread_0.statExecutedInstType::MemRead      1359393      0.18%     70.26% # Class of executed instruction. (Count)
system.timingCpu1.exec_context.thread_0.statExecutedInstType::MemWrite       702725      0.09%     70.36% # Class of executed instruction. (Count)
system.timingCpu1.exec_context.thread_0.statExecutedInstType::FloatMemRead    152049295     20.23%     90.59% # Class of executed instruction. (Count)
system.timingCpu1.exec_context.thread_0.statExecutedInstType::FloatMemWrite     70746796      9.41%    100.00% # Class of executed instruction. (Count)
system.timingCpu1.exec_context.thread_0.statExecutedInstType::IprAccess            0      0.00%    100.00% # Class of executed instruction. (Count)
system.timingCpu1.exec_context.thread_0.statExecutedInstType::InstPrefetch            0      0.00%    100.00% # Class of executed instruction. (Count)
system.timingCpu1.exec_context.thread_0.statExecutedInstType::total    751568420                       # Class of executed instruction. (Count)
system.timingCpu1.mmu.dtb.rdAccesses        153455974                       # TLB accesses on read requests (Count)
system.timingCpu1.mmu.dtb.wrAccesses         71459139                       # TLB accesses on write requests (Count)
system.timingCpu1.mmu.dtb.rdMisses              47498                       # TLB misses on read requests (Count)
system.timingCpu1.mmu.dtb.wrMisses               9691                       # TLB misses on write requests (Count)
system.timingCpu1.mmu.dtb.walker.power_state.pwrStateResidencyTicks::UNDEFINED 20911590733250                       # Cumulative time (in ticks) in various power states (Tick)
system.timingCpu1.mmu.itb.rdAccesses                0                       # TLB accesses on read requests (Count)
system.timingCpu1.mmu.itb.wrAccesses        725811074                       # TLB accesses on write requests (Count)
system.timingCpu1.mmu.itb.rdMisses                  0                       # TLB misses on read requests (Count)
system.timingCpu1.mmu.itb.wrMisses               2808                       # TLB misses on write requests (Count)
system.timingCpu1.mmu.itb.walker.power_state.pwrStateResidencyTicks::UNDEFINED 20911590733250                       # Cumulative time (in ticks) in various power states (Tick)
system.timingCpu1.power_state.pwrStateResidencyTicks::OFF 20911590733250                       # Cumulative time (in ticks) in various power states (Tick)
system.timingCpu1.thread_0.numInsts                 0                       # Number of Instructions committed (Count)
system.timingCpu1.thread_0.numOps                   0                       # Number of Ops committed (Count)
system.timingCpu1.thread_0.numMemRefs               0                       # Number of Memory References (Count)
system.workload.inst.arm                            0                       # number of arm instructions executed (Count)
system.workload.inst.quiesce                        0                       # number of quiesce instructions executed (Count)

---------- End Simulation Statistics   ----------
