
---------- Begin Simulation Statistics ----------
simSeconds                                          5                       # Number of seconds simulated (Second)
simTicks                                 5000000000000                       # Number of ticks simulated (Tick)
finalTick                                30658443782750                       # Number of ticks from beginning of simulation (restored from checkpoints and never reset) (Tick)
simFreq                                  1000000000000                       # The number of ticks per simulated second ((Tick/Second))
hostSeconds                                  15121.62                       # Real time elapsed on the host (Second)
hostTickRate                                330652374                       # The number of ticks simulated per host second (ticks/s) ((Tick/Second))
hostMemory                                    8233152                       # Number of bytes of host memory used (Byte)
simInsts                                 100606594039                       # Number of instructions simulated (Count)
simOps                                   102492196663                       # Number of ops (including micro ops) simulated (Count)
hostInstRate                                  6653162                       # Simulator instruction rate (inst/s) ((Count/Second))
hostOpRate                                    6777858                       # Simulator op (including micro ops) rate (op/s) ((Count/Second))
system.atomicCpu0.numCycles                         0                       # Number of cpu cycles simulated (Cycle)
system.atomicCpu0.numWorkItemsStarted               0                       # Number of work items this cpu started (Count)
system.atomicCpu0.numWorkItemsCompleted             0                       # Number of work items this cpu completed (Count)
system.atomicCpu0.exec_context.thread_0.numInsts            0                       # Number of instructions committed (Count)
system.atomicCpu0.exec_context.thread_0.numOps            0                       # Number of ops (including micro ops) committed (Count)
system.atomicCpu0.exec_context.thread_0.numIntAluAccesses            0                       # Number of integer alu accesses (Count)
system.atomicCpu0.exec_context.thread_0.numFpAluAccesses            0                       # Number of float alu accesses (Count)
system.atomicCpu0.exec_context.thread_0.numVecAluAccesses            0                       # Number of vector alu accesses (Count)
system.atomicCpu0.exec_context.thread_0.numCallsReturns            0                       # Number of times a function call or return occured (Count)
system.atomicCpu0.exec_context.thread_0.numCondCtrlInsts            0                       # Number of instructions that are conditional controls (Count)
system.atomicCpu0.exec_context.thread_0.numIntInsts            0                       # Number of integer instructions (Count)
system.atomicCpu0.exec_context.thread_0.numFpInsts            0                       # Number of float instructions (Count)
system.atomicCpu0.exec_context.thread_0.numVecInsts            0                       # Number of vector instructions (Count)
system.atomicCpu0.exec_context.thread_0.numIntRegReads            0                       # Number of times the integer registers were read (Count)
system.atomicCpu0.exec_context.thread_0.numIntRegWrites            0                       # Number of times the integer registers were written (Count)
system.atomicCpu0.exec_context.thread_0.numFpRegReads            0                       # Number of times the floating registers were read (Count)
system.atomicCpu0.exec_context.thread_0.numFpRegWrites            0                       # Number of times the floating registers were written (Count)
system.atomicCpu0.exec_context.thread_0.numVecRegReads            0                       # Number of times the vector registers were read (Count)
system.atomicCpu0.exec_context.thread_0.numVecRegWrites            0                       # Number of times the vector registers were written (Count)
system.atomicCpu0.exec_context.thread_0.numVecPredRegReads            0                       # Number of times the predicate registers were read (Count)
system.atomicCpu0.exec_context.thread_0.numVecPredRegWrites            0                       # Number of times the predicate registers were written (Count)
system.atomicCpu0.exec_context.thread_0.numMiscRegReads            0                       # Number of times the Misc registers were read (Count)
system.atomicCpu0.exec_context.thread_0.numMiscRegWrites            0                       # Number of times the Misc registers were written (Count)
system.atomicCpu0.exec_context.thread_0.numMemRefs            0                       # Number of memory refs (Count)
system.atomicCpu0.exec_context.thread_0.numLoadInsts            0                       # Number of load instructions (Count)
system.atomicCpu0.exec_context.thread_0.numStoreInsts            0                       # Number of store instructions (Count)
system.atomicCpu0.exec_context.thread_0.numIdleCycles            0                       # Number of idle cycles (Cycle)
system.atomicCpu0.exec_context.thread_0.numBusyCycles            0                       # Number of busy cycles (Cycle)
system.atomicCpu0.exec_context.thread_0.notIdleFraction            0                       # Percentage of non-idle cycles (Ratio)
system.atomicCpu0.exec_context.thread_0.idleFraction            1                       # Percentage of idle cycles (Ratio)
system.atomicCpu0.exec_context.thread_0.statExecutedInstType::No_OpClass            0                       # Class of executed instruction. (Count)
system.atomicCpu0.exec_context.thread_0.statExecutedInstType::IntAlu            0                       # Class of executed instruction. (Count)
system.atomicCpu0.exec_context.thread_0.statExecutedInstType::IntMult            0                       # Class of executed instruction. (Count)
system.atomicCpu0.exec_context.thread_0.statExecutedInstType::IntDiv            0                       # Class of executed instruction. (Count)
system.atomicCpu0.exec_context.thread_0.statExecutedInstType::FloatAdd            0                       # Class of executed instruction. (Count)
system.atomicCpu0.exec_context.thread_0.statExecutedInstType::FloatCmp            0                       # Class of executed instruction. (Count)
system.atomicCpu0.exec_context.thread_0.statExecutedInstType::FloatCvt            0                       # Class of executed instruction. (Count)
system.atomicCpu0.exec_context.thread_0.statExecutedInstType::FloatMult            0                       # Class of executed instruction. (Count)
system.atomicCpu0.exec_context.thread_0.statExecutedInstType::FloatMultAcc            0                       # Class of executed instruction. (Count)
system.atomicCpu0.exec_context.thread_0.statExecutedInstType::FloatDiv            0                       # Class of executed instruction. (Count)
system.atomicCpu0.exec_context.thread_0.statExecutedInstType::FloatMisc            0                       # Class of executed instruction. (Count)
system.atomicCpu0.exec_context.thread_0.statExecutedInstType::FloatSqrt            0                       # Class of executed instruction. (Count)
system.atomicCpu0.exec_context.thread_0.statExecutedInstType::SimdAdd            0                       # Class of executed instruction. (Count)
system.atomicCpu0.exec_context.thread_0.statExecutedInstType::SimdAddAcc            0                       # Class of executed instruction. (Count)
system.atomicCpu0.exec_context.thread_0.statExecutedInstType::SimdAlu            0                       # Class of executed instruction. (Count)
system.atomicCpu0.exec_context.thread_0.statExecutedInstType::SimdCmp            0                       # Class of executed instruction. (Count)
system.atomicCpu0.exec_context.thread_0.statExecutedInstType::SimdCvt            0                       # Class of executed instruction. (Count)
system.atomicCpu0.exec_context.thread_0.statExecutedInstType::SimdMisc            0                       # Class of executed instruction. (Count)
system.atomicCpu0.exec_context.thread_0.statExecutedInstType::SimdMult            0                       # Class of executed instruction. (Count)
system.atomicCpu0.exec_context.thread_0.statExecutedInstType::SimdMultAcc            0                       # Class of executed instruction. (Count)
system.atomicCpu0.exec_context.thread_0.statExecutedInstType::SimdShift            0                       # Class of executed instruction. (Count)
system.atomicCpu0.exec_context.thread_0.statExecutedInstType::SimdShiftAcc            0                       # Class of executed instruction. (Count)
system.atomicCpu0.exec_context.thread_0.statExecutedInstType::SimdDiv            0                       # Class of executed instruction. (Count)
system.atomicCpu0.exec_context.thread_0.statExecutedInstType::SimdSqrt            0                       # Class of executed instruction. (Count)
system.atomicCpu0.exec_context.thread_0.statExecutedInstType::SimdFloatAdd            0                       # Class of executed instruction. (Count)
system.atomicCpu0.exec_context.thread_0.statExecutedInstType::SimdFloatAlu            0                       # Class of executed instruction. (Count)
system.atomicCpu0.exec_context.thread_0.statExecutedInstType::SimdFloatCmp            0                       # Class of executed instruction. (Count)
system.atomicCpu0.exec_context.thread_0.statExecutedInstType::SimdFloatCvt            0                       # Class of executed instruction. (Count)
system.atomicCpu0.exec_context.thread_0.statExecutedInstType::SimdFloatDiv            0                       # Class of executed instruction. (Count)
system.atomicCpu0.exec_context.thread_0.statExecutedInstType::SimdFloatMisc            0                       # Class of executed instruction. (Count)
system.atomicCpu0.exec_context.thread_0.statExecutedInstType::SimdFloatMult            0                       # Class of executed instruction. (Count)
system.atomicCpu0.exec_context.thread_0.statExecutedInstType::SimdFloatMultAcc            0                       # Class of executed instruction. (Count)
system.atomicCpu0.exec_context.thread_0.statExecutedInstType::SimdFloatSqrt            0                       # Class of executed instruction. (Count)
system.atomicCpu0.exec_context.thread_0.statExecutedInstType::SimdReduceAdd            0                       # Class of executed instruction. (Count)
system.atomicCpu0.exec_context.thread_0.statExecutedInstType::SimdReduceAlu            0                       # Class of executed instruction. (Count)
system.atomicCpu0.exec_context.thread_0.statExecutedInstType::SimdReduceCmp            0                       # Class of executed instruction. (Count)
system.atomicCpu0.exec_context.thread_0.statExecutedInstType::SimdFloatReduceAdd            0                       # Class of executed instruction. (Count)
system.atomicCpu0.exec_context.thread_0.statExecutedInstType::SimdFloatReduceCmp            0                       # Class of executed instruction. (Count)
system.atomicCpu0.exec_context.thread_0.statExecutedInstType::SimdAes            0                       # Class of executed instruction. (Count)
system.atomicCpu0.exec_context.thread_0.statExecutedInstType::SimdAesMix            0                       # Class of executed instruction. (Count)
system.atomicCpu0.exec_context.thread_0.statExecutedInstType::SimdSha1Hash            0                       # Class of executed instruction. (Count)
system.atomicCpu0.exec_context.thread_0.statExecutedInstType::SimdSha1Hash2            0                       # Class of executed instruction. (Count)
system.atomicCpu0.exec_context.thread_0.statExecutedInstType::SimdSha256Hash            0                       # Class of executed instruction. (Count)
system.atomicCpu0.exec_context.thread_0.statExecutedInstType::SimdSha256Hash2            0                       # Class of executed instruction. (Count)
system.atomicCpu0.exec_context.thread_0.statExecutedInstType::SimdShaSigma2            0                       # Class of executed instruction. (Count)
system.atomicCpu0.exec_context.thread_0.statExecutedInstType::SimdShaSigma3            0                       # Class of executed instruction. (Count)
system.atomicCpu0.exec_context.thread_0.statExecutedInstType::SimdPredAlu            0                       # Class of executed instruction. (Count)
system.atomicCpu0.exec_context.thread_0.statExecutedInstType::MemRead            0                       # Class of executed instruction. (Count)
system.atomicCpu0.exec_context.thread_0.statExecutedInstType::MemWrite            0                       # Class of executed instruction. (Count)
system.atomicCpu0.exec_context.thread_0.statExecutedInstType::FloatMemRead            0                       # Class of executed instruction. (Count)
system.atomicCpu0.exec_context.thread_0.statExecutedInstType::FloatMemWrite            0                       # Class of executed instruction. (Count)
system.atomicCpu0.exec_context.thread_0.statExecutedInstType::IprAccess            0                       # Class of executed instruction. (Count)
system.atomicCpu0.exec_context.thread_0.statExecutedInstType::InstPrefetch            0                       # Class of executed instruction. (Count)
system.atomicCpu0.exec_context.thread_0.statExecutedInstType::total            0                       # Class of executed instruction. (Count)
system.atomicCpu0.mmu.dtb.rdAccesses                0                       # TLB accesses on read requests (Count)
system.atomicCpu0.mmu.dtb.wrAccesses                0                       # TLB accesses on write requests (Count)
system.atomicCpu0.mmu.dtb.rdMisses                  0                       # TLB misses on read requests (Count)
system.atomicCpu0.mmu.dtb.wrMisses                  0                       # TLB misses on write requests (Count)
system.atomicCpu0.mmu.dtb.walker.power_state.pwrStateResidencyTicks::UNDEFINED 30658443782750                       # Cumulative time (in ticks) in various power states (Tick)
system.atomicCpu0.mmu.itb.rdAccesses                0                       # TLB accesses on read requests (Count)
system.atomicCpu0.mmu.itb.wrAccesses                0                       # TLB accesses on write requests (Count)
system.atomicCpu0.mmu.itb.rdMisses                  0                       # TLB misses on read requests (Count)
system.atomicCpu0.mmu.itb.wrMisses                  0                       # TLB misses on write requests (Count)
system.atomicCpu0.mmu.itb.walker.power_state.pwrStateResidencyTicks::UNDEFINED 30658443782750                       # Cumulative time (in ticks) in various power states (Tick)
system.atomicCpu0.power_state.pwrStateResidencyTicks::OFF 30658443782750                       # Cumulative time (in ticks) in various power states (Tick)
system.atomicCpu0.thread_0.numInsts                 0                       # Number of Instructions committed (Count)
system.atomicCpu0.thread_0.numOps                   0                       # Number of Ops committed (Count)
system.atomicCpu0.thread_0.numMemRefs               0                       # Number of Memory References (Count)
system.atomicCpu1.numCycles                         0                       # Number of cpu cycles simulated (Cycle)
system.atomicCpu1.numWorkItemsStarted               0                       # Number of work items this cpu started (Count)
system.atomicCpu1.numWorkItemsCompleted             0                       # Number of work items this cpu completed (Count)
system.atomicCpu1.exec_context.thread_0.numInsts            0                       # Number of instructions committed (Count)
system.atomicCpu1.exec_context.thread_0.numOps            0                       # Number of ops (including micro ops) committed (Count)
system.atomicCpu1.exec_context.thread_0.numIntAluAccesses            0                       # Number of integer alu accesses (Count)
system.atomicCpu1.exec_context.thread_0.numFpAluAccesses            0                       # Number of float alu accesses (Count)
system.atomicCpu1.exec_context.thread_0.numVecAluAccesses            0                       # Number of vector alu accesses (Count)
system.atomicCpu1.exec_context.thread_0.numCallsReturns            0                       # Number of times a function call or return occured (Count)
system.atomicCpu1.exec_context.thread_0.numCondCtrlInsts            0                       # Number of instructions that are conditional controls (Count)
system.atomicCpu1.exec_context.thread_0.numIntInsts            0                       # Number of integer instructions (Count)
system.atomicCpu1.exec_context.thread_0.numFpInsts            0                       # Number of float instructions (Count)
system.atomicCpu1.exec_context.thread_0.numVecInsts            0                       # Number of vector instructions (Count)
system.atomicCpu1.exec_context.thread_0.numIntRegReads            0                       # Number of times the integer registers were read (Count)
system.atomicCpu1.exec_context.thread_0.numIntRegWrites            0                       # Number of times the integer registers were written (Count)
system.atomicCpu1.exec_context.thread_0.numFpRegReads            0                       # Number of times the floating registers were read (Count)
system.atomicCpu1.exec_context.thread_0.numFpRegWrites            0                       # Number of times the floating registers were written (Count)
system.atomicCpu1.exec_context.thread_0.numVecRegReads            0                       # Number of times the vector registers were read (Count)
system.atomicCpu1.exec_context.thread_0.numVecRegWrites            0                       # Number of times the vector registers were written (Count)
system.atomicCpu1.exec_context.thread_0.numVecPredRegReads            0                       # Number of times the predicate registers were read (Count)
system.atomicCpu1.exec_context.thread_0.numVecPredRegWrites            0                       # Number of times the predicate registers were written (Count)
system.atomicCpu1.exec_context.thread_0.numMiscRegReads            0                       # Number of times the Misc registers were read (Count)
system.atomicCpu1.exec_context.thread_0.numMiscRegWrites            0                       # Number of times the Misc registers were written (Count)
system.atomicCpu1.exec_context.thread_0.numMemRefs            0                       # Number of memory refs (Count)
system.atomicCpu1.exec_context.thread_0.numLoadInsts            0                       # Number of load instructions (Count)
system.atomicCpu1.exec_context.thread_0.numStoreInsts            0                       # Number of store instructions (Count)
system.atomicCpu1.exec_context.thread_0.numIdleCycles            0                       # Number of idle cycles (Cycle)
system.atomicCpu1.exec_context.thread_0.numBusyCycles            0                       # Number of busy cycles (Cycle)
system.atomicCpu1.exec_context.thread_0.notIdleFraction            0                       # Percentage of non-idle cycles (Ratio)
system.atomicCpu1.exec_context.thread_0.idleFraction            1                       # Percentage of idle cycles (Ratio)
system.atomicCpu1.exec_context.thread_0.statExecutedInstType::No_OpClass            0                       # Class of executed instruction. (Count)
system.atomicCpu1.exec_context.thread_0.statExecutedInstType::IntAlu            0                       # Class of executed instruction. (Count)
system.atomicCpu1.exec_context.thread_0.statExecutedInstType::IntMult            0                       # Class of executed instruction. (Count)
system.atomicCpu1.exec_context.thread_0.statExecutedInstType::IntDiv            0                       # Class of executed instruction. (Count)
system.atomicCpu1.exec_context.thread_0.statExecutedInstType::FloatAdd            0                       # Class of executed instruction. (Count)
system.atomicCpu1.exec_context.thread_0.statExecutedInstType::FloatCmp            0                       # Class of executed instruction. (Count)
system.atomicCpu1.exec_context.thread_0.statExecutedInstType::FloatCvt            0                       # Class of executed instruction. (Count)
system.atomicCpu1.exec_context.thread_0.statExecutedInstType::FloatMult            0                       # Class of executed instruction. (Count)
system.atomicCpu1.exec_context.thread_0.statExecutedInstType::FloatMultAcc            0                       # Class of executed instruction. (Count)
system.atomicCpu1.exec_context.thread_0.statExecutedInstType::FloatDiv            0                       # Class of executed instruction. (Count)
system.atomicCpu1.exec_context.thread_0.statExecutedInstType::FloatMisc            0                       # Class of executed instruction. (Count)
system.atomicCpu1.exec_context.thread_0.statExecutedInstType::FloatSqrt            0                       # Class of executed instruction. (Count)
system.atomicCpu1.exec_context.thread_0.statExecutedInstType::SimdAdd            0                       # Class of executed instruction. (Count)
system.atomicCpu1.exec_context.thread_0.statExecutedInstType::SimdAddAcc            0                       # Class of executed instruction. (Count)
system.atomicCpu1.exec_context.thread_0.statExecutedInstType::SimdAlu            0                       # Class of executed instruction. (Count)
system.atomicCpu1.exec_context.thread_0.statExecutedInstType::SimdCmp            0                       # Class of executed instruction. (Count)
system.atomicCpu1.exec_context.thread_0.statExecutedInstType::SimdCvt            0                       # Class of executed instruction. (Count)
system.atomicCpu1.exec_context.thread_0.statExecutedInstType::SimdMisc            0                       # Class of executed instruction. (Count)
system.atomicCpu1.exec_context.thread_0.statExecutedInstType::SimdMult            0                       # Class of executed instruction. (Count)
system.atomicCpu1.exec_context.thread_0.statExecutedInstType::SimdMultAcc            0                       # Class of executed instruction. (Count)
system.atomicCpu1.exec_context.thread_0.statExecutedInstType::SimdShift            0                       # Class of executed instruction. (Count)
system.atomicCpu1.exec_context.thread_0.statExecutedInstType::SimdShiftAcc            0                       # Class of executed instruction. (Count)
system.atomicCpu1.exec_context.thread_0.statExecutedInstType::SimdDiv            0                       # Class of executed instruction. (Count)
system.atomicCpu1.exec_context.thread_0.statExecutedInstType::SimdSqrt            0                       # Class of executed instruction. (Count)
system.atomicCpu1.exec_context.thread_0.statExecutedInstType::SimdFloatAdd            0                       # Class of executed instruction. (Count)
system.atomicCpu1.exec_context.thread_0.statExecutedInstType::SimdFloatAlu            0                       # Class of executed instruction. (Count)
system.atomicCpu1.exec_context.thread_0.statExecutedInstType::SimdFloatCmp            0                       # Class of executed instruction. (Count)
system.atomicCpu1.exec_context.thread_0.statExecutedInstType::SimdFloatCvt            0                       # Class of executed instruction. (Count)
system.atomicCpu1.exec_context.thread_0.statExecutedInstType::SimdFloatDiv            0                       # Class of executed instruction. (Count)
system.atomicCpu1.exec_context.thread_0.statExecutedInstType::SimdFloatMisc            0                       # Class of executed instruction. (Count)
system.atomicCpu1.exec_context.thread_0.statExecutedInstType::SimdFloatMult            0                       # Class of executed instruction. (Count)
system.atomicCpu1.exec_context.thread_0.statExecutedInstType::SimdFloatMultAcc            0                       # Class of executed instruction. (Count)
system.atomicCpu1.exec_context.thread_0.statExecutedInstType::SimdFloatSqrt            0                       # Class of executed instruction. (Count)
system.atomicCpu1.exec_context.thread_0.statExecutedInstType::SimdReduceAdd            0                       # Class of executed instruction. (Count)
system.atomicCpu1.exec_context.thread_0.statExecutedInstType::SimdReduceAlu            0                       # Class of executed instruction. (Count)
system.atomicCpu1.exec_context.thread_0.statExecutedInstType::SimdReduceCmp            0                       # Class of executed instruction. (Count)
system.atomicCpu1.exec_context.thread_0.statExecutedInstType::SimdFloatReduceAdd            0                       # Class of executed instruction. (Count)
system.atomicCpu1.exec_context.thread_0.statExecutedInstType::SimdFloatReduceCmp            0                       # Class of executed instruction. (Count)
system.atomicCpu1.exec_context.thread_0.statExecutedInstType::SimdAes            0                       # Class of executed instruction. (Count)
system.atomicCpu1.exec_context.thread_0.statExecutedInstType::SimdAesMix            0                       # Class of executed instruction. (Count)
system.atomicCpu1.exec_context.thread_0.statExecutedInstType::SimdSha1Hash            0                       # Class of executed instruction. (Count)
system.atomicCpu1.exec_context.thread_0.statExecutedInstType::SimdSha1Hash2            0                       # Class of executed instruction. (Count)
system.atomicCpu1.exec_context.thread_0.statExecutedInstType::SimdSha256Hash            0                       # Class of executed instruction. (Count)
system.atomicCpu1.exec_context.thread_0.statExecutedInstType::SimdSha256Hash2            0                       # Class of executed instruction. (Count)
system.atomicCpu1.exec_context.thread_0.statExecutedInstType::SimdShaSigma2            0                       # Class of executed instruction. (Count)
system.atomicCpu1.exec_context.thread_0.statExecutedInstType::SimdShaSigma3            0                       # Class of executed instruction. (Count)
system.atomicCpu1.exec_context.thread_0.statExecutedInstType::SimdPredAlu            0                       # Class of executed instruction. (Count)
system.atomicCpu1.exec_context.thread_0.statExecutedInstType::MemRead            0                       # Class of executed instruction. (Count)
system.atomicCpu1.exec_context.thread_0.statExecutedInstType::MemWrite            0                       # Class of executed instruction. (Count)
system.atomicCpu1.exec_context.thread_0.statExecutedInstType::FloatMemRead            0                       # Class of executed instruction. (Count)
system.atomicCpu1.exec_context.thread_0.statExecutedInstType::FloatMemWrite            0                       # Class of executed instruction. (Count)
system.atomicCpu1.exec_context.thread_0.statExecutedInstType::IprAccess            0                       # Class of executed instruction. (Count)
system.atomicCpu1.exec_context.thread_0.statExecutedInstType::InstPrefetch            0                       # Class of executed instruction. (Count)
system.atomicCpu1.exec_context.thread_0.statExecutedInstType::total            0                       # Class of executed instruction. (Count)
system.atomicCpu1.mmu.dtb.rdAccesses                0                       # TLB accesses on read requests (Count)
system.atomicCpu1.mmu.dtb.wrAccesses                0                       # TLB accesses on write requests (Count)
system.atomicCpu1.mmu.dtb.rdMisses                  0                       # TLB misses on read requests (Count)
system.atomicCpu1.mmu.dtb.wrMisses                  0                       # TLB misses on write requests (Count)
system.atomicCpu1.mmu.dtb.walker.power_state.pwrStateResidencyTicks::UNDEFINED 30658443782750                       # Cumulative time (in ticks) in various power states (Tick)
system.atomicCpu1.mmu.itb.rdAccesses                0                       # TLB accesses on read requests (Count)
system.atomicCpu1.mmu.itb.wrAccesses                0                       # TLB accesses on write requests (Count)
system.atomicCpu1.mmu.itb.rdMisses                  0                       # TLB misses on read requests (Count)
system.atomicCpu1.mmu.itb.wrMisses                  0                       # TLB misses on write requests (Count)
system.atomicCpu1.mmu.itb.walker.power_state.pwrStateResidencyTicks::UNDEFINED 30658443782750                       # Cumulative time (in ticks) in various power states (Tick)
system.atomicCpu1.power_state.pwrStateResidencyTicks::OFF 30658443782750                       # Cumulative time (in ticks) in various power states (Tick)
system.atomicCpu1.thread_0.numInsts                 0                       # Number of Instructions committed (Count)
system.atomicCpu1.thread_0.numOps                   0                       # Number of Ops committed (Count)
system.atomicCpu1.thread_0.numMemRefs               0                       # Number of Memory References (Count)
system.caches.delayHistogram::bucket_size           64                       # delay histogram for all message (Unspecified)
system.caches.delayHistogram::max_bucket          639                       # delay histogram for all message (Unspecified)
system.caches.delayHistogram::samples       804510670                       # delay histogram for all message (Unspecified)
system.caches.delayHistogram::mean           0.013026                       # delay histogram for all message (Unspecified)
system.caches.delayHistogram::stdev          0.316382                       # delay histogram for all message (Unspecified)
system.caches.delayHistogram             |   804510668    100.00%    100.00% |           0      0.00%    100.00% |           0      0.00%    100.00% |           0      0.00%    100.00% |           0      0.00%    100.00% |           0      0.00%    100.00% |           0      0.00%    100.00% |           1      0.00%    100.00% |           1      0.00%    100.00% |           0      0.00%    100.00% # delay histogram for all message (Unspecified)
system.caches.delayHistogram::total         804510670                       # delay histogram for all message (Unspecified)
system.caches.m_outstandReqHistSeqr::bucket_size            1                       (Unspecified)
system.caches.m_outstandReqHistSeqr::max_bucket            9                       (Unspecified)
system.caches.m_outstandReqHistSeqr::samples   4074977585                       (Unspecified)
system.caches.m_outstandReqHistSeqr::mean            1                       (Unspecified)
system.caches.m_outstandReqHistSeqr::gmean            1                       (Unspecified)
system.caches.m_outstandReqHistSeqr      |           0      0.00%      0.00% |  4074977585    100.00%    100.00% |           0      0.00%    100.00% |           0      0.00%    100.00% |           0      0.00%    100.00% |           0      0.00%    100.00% |           0      0.00%    100.00% |           0      0.00%    100.00% |           0      0.00%    100.00% |           0      0.00%    100.00% (Unspecified)
system.caches.m_outstandReqHistSeqr::total   4074977585                       (Unspecified)
system.caches.m_latencyHistSeqr::bucket_size          512                       (Unspecified)
system.caches.m_latencyHistSeqr::max_bucket         5119                       (Unspecified)
system.caches.m_latencyHistSeqr::samples   4074977583                       (Unspecified)
system.caches.m_latencyHistSeqr::mean        8.814948                       (Unspecified)
system.caches.m_latencyHistSeqr::gmean       1.236708                       (Unspecified)
system.caches.m_latencyHistSeqr::stdev      65.338557                       (Unspecified)
system.caches.m_latencyHistSeqr          |  4061895852     99.68%     99.68% |    11800772      0.29%     99.97% |       90952      0.00%     99.97% |     1143221      0.03%    100.00% |       46747      0.00%    100.00% |          39      0.00%    100.00% |           0      0.00%    100.00% |           0      0.00%    100.00% |           0      0.00%    100.00% |           0      0.00%    100.00% (Unspecified)
system.caches.m_latencyHistSeqr::total     4074977583                       (Unspecified)
system.caches.m_hitLatencyHistSeqr::bucket_size            1                       (Unspecified)
system.caches.m_hitLatencyHistSeqr::max_bucket            9                       (Unspecified)
system.caches.m_hitLatencyHistSeqr::samples   3819065900                       (Unspecified)
system.caches.m_hitLatencyHistSeqr::mean            1                       (Unspecified)
system.caches.m_hitLatencyHistSeqr::gmean            1                       (Unspecified)
system.caches.m_hitLatencyHistSeqr       |           0      0.00%      0.00% |  3819065900    100.00%    100.00% |           0      0.00%    100.00% |           0      0.00%    100.00% |           0      0.00%    100.00% |           0      0.00%    100.00% |           0      0.00%    100.00% |           0      0.00%    100.00% |           0      0.00%    100.00% |           0      0.00%    100.00% (Unspecified)
system.caches.m_hitLatencyHistSeqr::total   3819065900                       (Unspecified)
system.caches.m_missLatencyHistSeqr::bucket_size          512                       (Unspecified)
system.caches.m_missLatencyHistSeqr::max_bucket         5119                       (Unspecified)
system.caches.m_missLatencyHistSeqr::samples    255911683                       (Unspecified)
system.caches.m_missLatencyHistSeqr::mean   125.440345                       (Unspecified)
system.caches.m_missLatencyHistSeqr::gmean    29.458196                       (Unspecified)
system.caches.m_missLatencyHistSeqr::stdev   231.227170                       (Unspecified)
system.caches.m_missLatencyHistSeqr      |   242829952     94.89%     94.89% |    11800772      4.61%     99.50% |       90952      0.04%     99.53% |     1143221      0.45%     99.98% |       46747      0.02%    100.00% |          39      0.00%    100.00% |           0      0.00%    100.00% |           0      0.00%    100.00% |           0      0.00%    100.00% |           0      0.00%    100.00% (Unspecified)
system.caches.m_missLatencyHistSeqr::total    255911683                       (Unspecified)
system.caches.delayVCHist.vnet_0::bucket_size           64                       # delay histogram for vnet_0 (Unspecified)
system.caches.delayVCHist.vnet_0::max_bucket          639                       # delay histogram for vnet_0 (Unspecified)
system.caches.delayVCHist.vnet_0::samples    374071703                       # delay histogram for vnet_0 (Unspecified)
system.caches.delayVCHist.vnet_0::mean       0.027729                       # delay histogram for vnet_0 (Unspecified)
system.caches.delayVCHist.vnet_0::stdev      0.462241                       # delay histogram for vnet_0 (Unspecified)
system.caches.delayVCHist.vnet_0         |   374071701    100.00%    100.00% |           0      0.00%    100.00% |           0      0.00%    100.00% |           0      0.00%    100.00% |           0      0.00%    100.00% |           0      0.00%    100.00% |           0      0.00%    100.00% |           1      0.00%    100.00% |           1      0.00%    100.00% |           0      0.00%    100.00% # delay histogram for vnet_0 (Unspecified)
system.caches.delayVCHist.vnet_0::total     374071703                       # delay histogram for vnet_0 (Unspecified)
system.caches.delayVCHist.vnet_1::bucket_size            1                       # delay histogram for vnet_1 (Unspecified)
system.caches.delayVCHist.vnet_1::max_bucket            9                       # delay histogram for vnet_1 (Unspecified)
system.caches.delayVCHist.vnet_1::samples    429935200                       # delay histogram for vnet_1 (Unspecified)
system.caches.delayVCHist.vnet_1::mean       0.000248                       # delay histogram for vnet_1 (Unspecified)
system.caches.delayVCHist.vnet_1::stdev      0.032399                       # delay histogram for vnet_1 (Unspecified)
system.caches.delayVCHist.vnet_1         |   429906387     99.99%     99.99% |           0      0.00%     99.99% |        9477      0.00%    100.00% |           0      0.00%    100.00% |       14348      0.00%    100.00% |           0      0.00%    100.00% |        4835      0.00%    100.00% |           0      0.00%    100.00% |         153      0.00%    100.00% |           0      0.00%    100.00% # delay histogram for vnet_1 (Unspecified)
system.caches.delayVCHist.vnet_1::total     429935200                       # delay histogram for vnet_1 (Unspecified)
system.caches.delayVCHist.vnet_2::bucket_size            1                       # delay histogram for vnet_2 (Unspecified)
system.caches.delayVCHist.vnet_2::max_bucket            9                       # delay histogram for vnet_2 (Unspecified)
system.caches.delayVCHist.vnet_2::samples       503767                       # delay histogram for vnet_2 (Unspecified)
system.caches.delayVCHist.vnet_2::mean       0.000651                       # delay histogram for vnet_2 (Unspecified)
system.caches.delayVCHist.vnet_2::stdev      0.036080                       # delay histogram for vnet_2 (Unspecified)
system.caches.delayVCHist.vnet_2         |      503603     99.97%     99.97% |           0      0.00%     99.97% |         164      0.03%    100.00% |           0      0.00%    100.00% |           0      0.00%    100.00% |           0      0.00%    100.00% |           0      0.00%    100.00% |           0      0.00%    100.00% |           0      0.00%    100.00% |           0      0.00%    100.00% # delay histogram for vnet_2 (Unspecified)
system.caches.delayVCHist.vnet_2::total        503767                       # delay histogram for vnet_2 (Unspecified)
system.caches.L1Cache_Controller.Load    |   465377763     50.07%     50.07% |   464062865     49.93%    100.00% (Unspecified)
system.caches.L1Cache_Controller.Load::total    929440628                       (Unspecified)
system.caches.L1Cache_Controller.Ifetch  |  1570874979     50.10%     50.10% |  1564814179     49.90%    100.00% (Unspecified)
system.caches.L1Cache_Controller.Ifetch::total   3135689158                       (Unspecified)
system.caches.L1Cache_Controller.Store   |     5449300     55.34%     55.34% |     4398498     44.66%    100.00% (Unspecified)
system.caches.L1Cache_Controller.Store::total      9847798                       (Unspecified)
system.caches.L1Cache_Controller.Inv     |      131881     44.70%     44.70% |      163146     55.30%    100.00% (Unspecified)
system.caches.L1Cache_Controller.Inv::total       295027                       (Unspecified)
system.caches.L1Cache_Controller.L1_Replacement |   127854118     50.02%     50.02% |   127745166     49.98%    100.00% (Unspecified)
system.caches.L1Cache_Controller.L1_Replacement::total    255599284                       (Unspecified)
system.caches.L1Cache_Controller.Fwd_GETX |          39      3.01%      3.01% |        1256     96.99%    100.00% (Unspecified)
system.caches.L1Cache_Controller.Fwd_GETX::total         1295                       (Unspecified)
system.caches.L1Cache_Controller.Fwd_GETS |      120740     58.20%     58.20% |       86705     41.80%    100.00% (Unspecified)
system.caches.L1Cache_Controller.Fwd_GETS::total       207445                       (Unspecified)
system.caches.L1Cache_Controller.Data    |       12972     99.70%     99.70% |          39      0.30%    100.00% (Unspecified)
system.caches.L1Cache_Controller.Data::total        13011                       (Unspecified)
system.caches.L1Cache_Controller.Data_Exclusive |    29219018     50.02%     50.02% |    29200315     49.98%    100.00% (Unspecified)
system.caches.L1Cache_Controller.Data_Exclusive::total     58419333                       (Unspecified)
system.caches.L1Cache_Controller.DataS_fromL1 |       86705     41.80%     41.80% |      120740     58.20%    100.00% (Unspecified)
system.caches.L1Cache_Controller.DataS_fromL1::total       207445                       (Unspecified)
system.caches.L1Cache_Controller.Data_all_Acks |    98595399     50.02%     50.02% |    98503298     49.98%    100.00% (Unspecified)
system.caches.L1Cache_Controller.Data_all_Acks::total    197098697                       (Unspecified)
system.caches.L1Cache_Controller.Ack     |       98019     56.59%     56.59% |       75178     43.41%    100.00% (Unspecified)
system.caches.L1Cache_Controller.Ack::total       173197                       (Unspecified)
system.caches.L1Cache_Controller.Ack_all |      110991     59.61%     59.61% |       75217     40.39%    100.00% (Unspecified)
system.caches.L1Cache_Controller.Ack_all::total       186208                       (Unspecified)
system.caches.L1Cache_Controller.WB_Ack  |    29473854     50.07%     50.07% |    29396428     49.93%    100.00% (Unspecified)
system.caches.L1Cache_Controller.WB_Ack::total     58870282                       (Unspecified)
system.caches.L1Cache_Controller.NP.Load |   127418865     49.99%     49.99% |   127477289     50.01%    100.00% (Unspecified)
system.caches.L1Cache_Controller.NP.Load::total    254896154                       (Unspecified)
system.caches.L1Cache_Controller.NP.Ifetch |      164672     71.36%     71.36% |       66087     28.64%    100.00% (Unspecified)
system.caches.L1Cache_Controller.NP.Ifetch::total       230759                       (Unspecified)
system.caches.L1Cache_Controller.NP.Store |      279241     57.02%     57.02% |      210494     42.98%    100.00% (Unspecified)
system.caches.L1Cache_Controller.NP.Store::total       489735                       (Unspecified)
system.caches.L1Cache_Controller.NP.Inv  |       78927     47.38%     47.38% |       87671     52.62%    100.00% (Unspecified)
system.caches.L1Cache_Controller.NP.Inv::total       166598                       (Unspecified)
system.caches.L1Cache_Controller.I.Load  |          23      0.09%      0.09% |       24551     99.91%    100.00% (Unspecified)
system.caches.L1Cache_Controller.I.Load::total        24574                       (Unspecified)
system.caches.L1Cache_Controller.I.Ifetch |       51281     52.74%     52.74% |       45957     47.26%    100.00% (Unspecified)
system.caches.L1Cache_Controller.I.Ifetch::total        97238                       (Unspecified)
system.caches.L1Cache_Controller.I.Store |          13     52.00%     52.00% |          12     48.00%    100.00% (Unspecified)
system.caches.L1Cache_Controller.I.Store::total           25                       (Unspecified)
system.caches.L1Cache_Controller.I.L1_Replacement |        1405     19.33%     19.33% |        5865     80.67%    100.00% (Unspecified)
system.caches.L1Cache_Controller.I.L1_Replacement::total         7270                       (Unspecified)
system.caches.L1Cache_Controller.S.Load  |    55121964     49.60%     49.60% |    56001865     50.40%    100.00% (Unspecified)
system.caches.L1Cache_Controller.S.Load::total    111123829                       (Unspecified)
system.caches.L1Cache_Controller.S.Ifetch |  1570659026     50.09%     50.09% |  1564702135     49.91%    100.00% (Unspecified)
system.caches.L1Cache_Controller.S.Ifetch::total   3135361161                       (Unspecified)
system.caches.L1Cache_Controller.S.Store |       98019     56.59%     56.59% |       75180     43.41%    100.00% (Unspecified)
system.caches.L1Cache_Controller.S.Store::total       173199                       (Unspecified)
system.caches.L1Cache_Controller.S.Inv   |       52937     41.24%     41.24% |       75427     58.76%    100.00% (Unspecified)
system.caches.L1Cache_Controller.S.Inv::total       128364                       (Unspecified)
system.caches.L1Cache_Controller.S.L1_Replacement |    98378859     50.01%     50.01% |    98342873     49.99%    100.00% (Unspecified)
system.caches.L1Cache_Controller.S.L1_Replacement::total    196721732                       (Unspecified)
system.caches.L1Cache_Controller.E.Load  |   278671043     50.12%     50.12% |   277364817     49.88%    100.00% (Unspecified)
system.caches.L1Cache_Controller.E.Load::total    556035860                       (Unspecified)
system.caches.L1Cache_Controller.E.Store |      226570     52.90%     52.90% |      201759     47.10%    100.00% (Unspecified)
system.caches.L1Cache_Controller.E.Store::total       428329                       (Unspecified)
system.caches.L1Cache_Controller.E.Inv   |          13     30.95%     30.95% |          29     69.05%    100.00% (Unspecified)
system.caches.L1Cache_Controller.E.Inv::total           42                       (Unspecified)
system.caches.L1Cache_Controller.E.L1_Replacement |    28913861     50.00%     50.00% |    28918180     50.00%    100.00% (Unspecified)
system.caches.L1Cache_Controller.E.L1_Replacement::total     57832041                       (Unspecified)
system.caches.L1Cache_Controller.E.Fwd_GETX |           2      0.16%      0.16% |        1217     99.84%    100.00% (Unspecified)
system.caches.L1Cache_Controller.E.Fwd_GETX::total         1219                       (Unspecified)
system.caches.L1Cache_Controller.E.Fwd_GETS |       76941     49.80%     49.80% |       77553     50.20%    100.00% (Unspecified)
system.caches.L1Cache_Controller.E.Fwd_GETS::total       154494                       (Unspecified)
system.caches.L1Cache_Controller.M.Load  |     4165868     56.60%     56.60% |     3194343     43.40%    100.00% (Unspecified)
system.caches.L1Cache_Controller.M.Load::total      7360211                       (Unspecified)
system.caches.L1Cache_Controller.M.Store |     4845457     55.34%     55.34% |     3911053     44.66%    100.00% (Unspecified)
system.caches.L1Cache_Controller.M.Store::total      8756510                       (Unspecified)
system.caches.L1Cache_Controller.M.Inv   |           4     80.00%     80.00% |           1     20.00%    100.00% (Unspecified)
system.caches.L1Cache_Controller.M.Inv::total            5                       (Unspecified)
system.caches.L1Cache_Controller.M.L1_Replacement |      559993     53.94%     53.94% |      478248     46.06%    100.00% (Unspecified)
system.caches.L1Cache_Controller.M.L1_Replacement::total      1038241                       (Unspecified)
system.caches.L1Cache_Controller.M.Fwd_GETX |          37     48.68%     48.68% |          39     51.32%    100.00% (Unspecified)
system.caches.L1Cache_Controller.M.Fwd_GETX::total           76                       (Unspecified)
system.caches.L1Cache_Controller.M.Fwd_GETS |       43799     82.72%     82.72% |        9150     17.28%    100.00% (Unspecified)
system.caches.L1Cache_Controller.M.Fwd_GETS::total        52949                       (Unspecified)
system.caches.L1Cache_Controller.IS.Inv  |           0      0.00%      0.00% |          16    100.00%    100.00% (Unspecified)
system.caches.L1Cache_Controller.IS.Inv::total           16                       (Unspecified)
system.caches.L1Cache_Controller.IS.Data_Exclusive |    29219018     50.02%     50.02% |    29200315     49.98%    100.00% (Unspecified)
system.caches.L1Cache_Controller.IS.Data_Exclusive::total     58419333                       (Unspecified)
system.caches.L1Cache_Controller.IS.DataS_fromL1 |       86705     41.80%     41.80% |      120724     58.20%    100.00% (Unspecified)
system.caches.L1Cache_Controller.IS.DataS_fromL1::total       207429                       (Unspecified)
system.caches.L1Cache_Controller.IS.Data_all_Acks |    98329117     50.01%     50.01% |    98292829     49.99%    100.00% (Unspecified)
system.caches.L1Cache_Controller.IS.Data_all_Acks::total    196621946                       (Unspecified)
system.caches.L1Cache_Controller.IM.Data |       12972     99.70%     99.70% |          39      0.30%    100.00% (Unspecified)
system.caches.L1Cache_Controller.IM.Data::total        13011                       (Unspecified)
system.caches.L1Cache_Controller.IM.Data_all_Acks |      266282     55.85%     55.85% |      210469     44.15%    100.00% (Unspecified)
system.caches.L1Cache_Controller.IM.Data_all_Acks::total       476751                       (Unspecified)
system.caches.L1Cache_Controller.SM.Inv  |           0      0.00%      0.00% |           2    100.00%    100.00% (Unspecified)
system.caches.L1Cache_Controller.SM.Inv::total            2                       (Unspecified)
system.caches.L1Cache_Controller.SM.Ack  |       98019     56.59%     56.59% |       75178     43.41%    100.00% (Unspecified)
system.caches.L1Cache_Controller.SM.Ack::total       173197                       (Unspecified)
system.caches.L1Cache_Controller.SM.Ack_all |      110991     59.61%     59.61% |       75217     40.39%    100.00% (Unspecified)
system.caches.L1Cache_Controller.SM.Ack_all::total       186208                       (Unspecified)
system.caches.L1Cache_Controller.IS_I.DataS_fromL1 |           0      0.00%      0.00% |          16    100.00%    100.00% (Unspecified)
system.caches.L1Cache_Controller.IS_I.DataS_fromL1::total           16                       (Unspecified)
system.caches.L1Cache_Controller.M_I.Fwd_GETS |           0      0.00%      0.00% |           2    100.00%    100.00% (Unspecified)
system.caches.L1Cache_Controller.M_I.Fwd_GETS::total            2                       (Unspecified)
system.caches.L1Cache_Controller.M_I.WB_Ack |    29473854     50.07%     50.07% |    29396426     49.93%    100.00% (Unspecified)
system.caches.L1Cache_Controller.M_I.WB_Ack::total     58870280                       (Unspecified)
system.caches.L1Cache_Controller.SINK_WB_ACK.WB_Ack |           0      0.00%      0.00% |           2    100.00%    100.00% (Unspecified)
system.caches.L1Cache_Controller.SINK_WB_ACK.WB_Ack::total            2                       (Unspecified)
system.caches.Directory_Controller.Fetch     57390918      0.00%      0.00% (Unspecified)
system.caches.Directory_Controller.Data        427826      0.00%      0.00% (Unspecified)
system.caches.Directory_Controller.Memory_Data     57390917      0.00%      0.00% (Unspecified)
system.caches.Directory_Controller.Memory_Ack       427826      0.00%      0.00% (Unspecified)
system.caches.Directory_Controller.CleanReplacement     56832020      0.00%      0.00% (Unspecified)
system.caches.Directory_Controller.I.Fetch     57390918      0.00%      0.00% (Unspecified)
system.caches.Directory_Controller.M.Data       427826      0.00%      0.00% (Unspecified)
system.caches.Directory_Controller.M.CleanReplacement     56832020      0.00%      0.00% (Unspecified)
system.caches.Directory_Controller.IM.Memory_Data     57390917      0.00%      0.00% (Unspecified)
system.caches.Directory_Controller.MI.Memory_Ack       427826      0.00%      0.00% (Unspecified)
system.caches.L2Cache_Controller.L1_GET_INSTR |       28234      8.61%      8.61% |       52480     16.00%     24.61% |       40294     12.28%     36.89% |       12199      3.72%     40.61% |       30868      9.41%     50.02% |       43373     13.22%     63.25% |       53004     16.16%     79.41% |       67546     20.59%    100.00% (Unspecified)
system.caches.L2Cache_Controller.L1_GET_INSTR::total       327998                       (Unspecified)
system.caches.L2Cache_Controller.L1_GETS |    31970908     12.54%     12.54% |    31943713     12.53%     25.07% |    31827038     12.48%     37.56% |    31811232     12.48%     50.03% |    31917200     12.52%     62.55% |    31852584     12.49%     75.05% |    31782698     12.47%     87.51% |    31830377     12.49%    100.00% (Unspecified)
system.caches.L2Cache_Controller.L1_GETS::total    254935750                       (Unspecified)
system.caches.L2Cache_Controller.L1_GETX |       85133     17.38%     17.38% |       49935     10.20%     27.58% |       35046      7.16%     34.73% |       49876     10.18%     44.92% |       44948      9.18%     54.10% |       99859     20.39%     74.48% |       59942     12.24%     86.72% |       65025     13.28%    100.00% (Unspecified)
system.caches.L2Cache_Controller.L1_GETX::total       489764                       (Unspecified)
system.caches.L2Cache_Controller.L1_UPGRADE |       18815     10.13%     10.13% |       22868     12.31%     22.44% |       18741     10.09%     32.52% |       18689     10.06%     42.58% |       18702     10.07%     52.65% |       18702     10.07%     62.72% |       50458     27.16%     89.88% |       18810     10.12%    100.00% (Unspecified)
system.caches.L2Cache_Controller.L1_UPGRADE::total       185785                       (Unspecified)
system.caches.L2Cache_Controller.L1_PUTX |     7373857     12.53%     12.53% |     7380284     12.54%     25.06% |     7316442     12.43%     37.49% |     7339062     12.47%     49.96% |     7340967     12.47%     62.43% |     7394970     12.56%     74.99% |     7353684     12.49%     87.48% |     7371018     12.52%    100.00% (Unspecified)
system.caches.L2Cache_Controller.L1_PUTX::total     58870284                       (Unspecified)
system.caches.L2Cache_Controller.L2_Replacement |       53642     12.54%     12.54% |       53256     12.45%     24.99% |       53635     12.54%     37.52% |       53413     12.48%     50.01% |       53441     12.49%     62.50% |       53478     12.50%     75.00% |       53435     12.49%     87.49% |       53522     12.51%    100.00% (Unspecified)
system.caches.L2Cache_Controller.L2_Replacement::total       427822                       (Unspecified)
system.caches.L2Cache_Controller.L2_Replacement_clean |     7103876     12.50%     12.50% |     7106373     12.50%     25.00% |     7102477     12.50%     37.50% |     7103264     12.50%     50.00% |     7105042     12.50%     62.50% |     7103989     12.50%     75.00% |     7103231     12.50%     87.50% |     7103772     12.50%    100.00% (Unspecified)
system.caches.L2Cache_Controller.L2_Replacement_clean::total     56832024                       (Unspecified)
system.caches.L2Cache_Controller.Mem_Data |     7173902     12.50%     12.50% |     7176013     12.50%     25.00% |     7172496     12.50%     37.50% |     7173061     12.50%     50.00% |     7174867     12.50%     62.50% |     7173851     12.50%     75.00% |     7173050     12.50%     87.50% |     7173677     12.50%    100.00% (Unspecified)
system.caches.L2Cache_Controller.Mem_Data::total     57390917                       (Unspecified)
system.caches.L2Cache_Controller.Mem_Ack |     7157518     12.50%     12.50% |     7159629     12.50%     25.00% |     7156112     12.50%     37.50% |     7156677     12.50%     50.00% |     7158483     12.50%     62.50% |     7157467     12.50%     75.00% |     7156666     12.50%     87.50% |     7157294     12.50%    100.00% (Unspecified)
system.caches.L2Cache_Controller.Mem_Ack::total     57259846                       (Unspecified)
system.caches.L2Cache_Controller.WB_Data |       10086     19.05%     19.05% |        5249      9.91%     28.96% |        2192      4.14%     33.10% |        2205      4.16%     37.26% |        2274      4.29%     41.56% |        2241      4.23%     45.79% |       26395     49.85%     95.63% |        2312      4.37%    100.00% (Unspecified)
system.caches.L2Cache_Controller.WB_Data::total        52954                       (Unspecified)
system.caches.L2Cache_Controller.WB_Data_clean |       19352     12.53%     12.53% |       20294     13.14%     25.66% |       19192     12.42%     38.08% |       19130     12.38%     50.47% |       19157     12.40%     62.87% |       19096     12.36%     75.23% |       19111     12.37%     87.60% |       19164     12.40%    100.00% (Unspecified)
system.caches.L2Cache_Controller.WB_Data_clean::total       154496                       (Unspecified)
system.caches.L2Cache_Controller.Ack     |        6260     12.71%     12.71% |        7830     15.89%     28.60% |        4498      9.13%     37.73% |        5503     11.17%     48.90% |        7255     14.73%     63.63% |        6159     12.50%     76.13% |        6169     12.52%     88.65% |        5592     11.35%    100.00% (Unspecified)
system.caches.L2Cache_Controller.Ack::total        49266                       (Unspecified)
system.caches.L2Cache_Controller.Ack_all |        7078     11.89%     11.89% |        9657     16.22%     28.10% |        5880      9.87%     37.98% |        6848     11.50%     49.48% |        8616     14.47%     63.95% |        7308     12.27%     76.22% |        6892     11.57%     87.79% |        7269     12.21%    100.00% (Unspecified)
system.caches.L2Cache_Controller.Ack_all::total        59548                       (Unspecified)
system.caches.L2Cache_Controller.Unblock |       29438     14.19%     14.19% |       25543     12.31%     26.50% |       21384     10.31%     36.81% |       21335     10.28%     47.10% |       21427     10.33%     57.43% |       21337     10.29%     67.71% |       45506     21.94%     89.65% |       21475     10.35%    100.00% (Unspecified)
system.caches.L2Cache_Controller.Unblock::total       207445                       (Unspecified)
system.caches.L2Cache_Controller.Exclusive_Unblock |     7404976     12.53%     12.53% |     7406237     12.54%     25.07% |     7338243     12.42%     37.49% |     7360799     12.46%     49.95% |     7362813     12.46%     62.41% |     7416703     12.55%     74.96% |     7399622     12.52%     87.49% |     7392899     12.51%    100.00% (Unspecified)
system.caches.L2Cache_Controller.Exclusive_Unblock::total     59082292                       (Unspecified)
system.caches.L2Cache_Controller.NP.L1_GET_INSTR |        6751     11.80%     11.80% |        9347     16.34%     28.13% |        5603      9.79%     37.93% |        6558     11.46%     49.39% |        8334     14.57%     63.95% |        7048     12.32%     76.27% |        6605     11.54%     87.82% |        6972     12.18%    100.00% (Unspecified)
system.caches.L2Cache_Controller.NP.L1_GET_INSTR::total        57218                       (Unspecified)
system.caches.L2Cache_Controller.NP.L1_GETS |     7147385     12.50%     12.50% |     7147177     12.50%     25.00% |     7147286     12.50%     37.50% |     7146962     12.50%     50.00% |     7146954     12.50%     62.50% |     7147249     12.50%     75.00% |     7146886     12.50%     87.50% |     7147085     12.50%    100.00% (Unspecified)
system.caches.L2Cache_Controller.NP.L1_GETS::total     57176984                       (Unspecified)
system.caches.L2Cache_Controller.NP.L1_GETX |       19766     12.61%     12.61% |       19489     12.44%     25.05% |       19607     12.51%     37.56% |       19541     12.47%     50.03% |       19579     12.49%     62.52% |       19554     12.48%     75.00% |       19559     12.48%     87.48% |       19621     12.52%    100.00% (Unspecified)
system.caches.L2Cache_Controller.NP.L1_GETX::total       156716                       (Unspecified)
system.caches.L2Cache_Controller.SS.L1_GET_INSTR |       18512      7.38%      7.38% |       39686     15.82%     23.20% |       32732     13.05%     36.25% |        3364      1.34%     37.59% |       19558      7.80%     45.38% |       34097     13.59%     58.98% |       44323     17.67%     76.64% |       58589     23.36%    100.00% (Unspecified)
system.caches.L2Cache_Controller.SS.L1_GET_INSTR::total       250861                       (Unspecified)
system.caches.L2Cache_Controller.SS.L1_GETS |    24640396     12.55%     12.55% |    24584699     12.52%     25.08% |    24521166     12.49%     37.57% |    24497656     12.48%     50.05% |    24596596     12.53%     62.58% |    24533089     12.50%     75.08% |    24420362     12.44%     87.52% |    24499809     12.48%    100.00% (Unspecified)
system.caches.L2Cache_Controller.SS.L1_GETS::total    196293773                       (Unspecified)
system.caches.L2Cache_Controller.SS.L1_GETX |        7939     61.02%     61.02% |           0      0.00%     61.02% |           1      0.01%     61.03% |           0      0.00%     61.03% |          77      0.59%     61.62% |           8      0.06%     61.68% |        4985     38.31%     99.99% |           1      0.01%    100.00% (Unspecified)
system.caches.L2Cache_Controller.SS.L1_GETX::total        13011                       (Unspecified)
system.caches.L2Cache_Controller.SS.L1_UPGRADE |       18813     10.86%     10.86% |       22868     13.20%     24.07% |       18741     10.82%     34.89% |       18689     10.79%     45.68% |       18702     10.80%     56.47% |       18702     10.80%     67.27% |       37872     21.87%     89.14% |       18810     10.86%    100.00% (Unspecified)
system.caches.L2Cache_Controller.SS.L1_UPGRADE::total       173197                       (Unspecified)
system.caches.L2Cache_Controller.SS.L1_PUTX |           0      0.00%      0.00% |           0      0.00%      0.00% |           0      0.00%      0.00% |           2    100.00%    100.00% |           0      0.00%    100.00% |           0      0.00%    100.00% |           0      0.00%    100.00% |           0      0.00%    100.00% (Unspecified)
system.caches.L2Cache_Controller.SS.L1_PUTX::total            2                       (Unspecified)
system.caches.L2Cache_Controller.SS.L2_Replacement |         211     13.06%     13.06% |         206     12.75%     25.80% |         214     13.24%     39.05% |         187     11.57%     50.62% |         200     12.38%     63.00% |         198     12.25%     75.25% |         194     12.00%     87.25% |         206     12.75%    100.00% (Unspecified)
system.caches.L2Cache_Controller.SS.L2_Replacement::total         1616                       (Unspecified)
system.caches.L2Cache_Controller.SS.L2_Replacement_clean |        6858     11.85%     11.85% |        9449     16.32%     28.17% |        5666      9.79%     37.96% |        6654     11.49%     49.45% |        8409     14.53%     63.98% |        7106     12.28%     76.25% |        6691     11.56%     87.81% |        7057     12.19%    100.00% (Unspecified)
system.caches.L2Cache_Controller.SS.L2_Replacement_clean::total        57890                       (Unspecified)
system.caches.L2Cache_Controller.M.L1_GETS |      153667     12.37%     12.37% |      186276     14.99%     27.36% |      137185     11.04%     38.40% |      145275     11.69%     50.10% |      152216     12.25%     62.35% |      150901     12.15%     74.49% |      154930     12.47%     86.96% |      161988     13.04%    100.00% (Unspecified)
system.caches.L2Cache_Controller.M.L1_GETS::total      1242438                       (Unspecified)
system.caches.L2Cache_Controller.M.L1_GETX |       56168     17.62%     17.62% |       30429      9.55%     27.17% |       15435      4.84%     32.01% |       30335      9.52%     41.53% |       25292      7.93%     49.46% |       80297     25.19%     74.66% |       35385     11.10%     85.76% |       45399     14.24%    100.00% (Unspecified)
system.caches.L2Cache_Controller.M.L1_GETX::total       318740                       (Unspecified)
system.caches.L2Cache_Controller.M.L2_Replacement |       53429     12.54%     12.54% |       53050     12.45%     24.98% |       53421     12.53%     37.52% |       53226     12.49%     50.01% |       53240     12.49%     62.50% |       53280     12.50%     75.00% |       53241     12.49%     87.49% |       53316     12.51%    100.00% (Unspecified)
system.caches.L2Cache_Controller.M.L2_Replacement::total       426203                       (Unspecified)
system.caches.L2Cache_Controller.M.L2_Replacement_clean |     7097011     12.50%     12.50% |     7096922     12.50%     25.00% |     7096811     12.50%     37.50% |     7096603     12.50%     50.00% |     7096623     12.50%     62.50% |     7096879     12.50%     75.00% |     7096533     12.50%     87.50% |     7096708     12.50%    100.00% (Unspecified)
system.caches.L2Cache_Controller.M.L2_Replacement_clean::total     56774090                       (Unspecified)
system.caches.L2Cache_Controller.MT.L1_GETS |       29438     14.19%     14.19% |       25543     12.31%     26.50% |       21384     10.31%     36.81% |       21335     10.28%     47.10% |       21427     10.33%     57.43% |       21337     10.29%     67.71% |       45506     21.94%     89.65% |       21475     10.35%    100.00% (Unspecified)
system.caches.L2Cache_Controller.MT.L1_GETS::total       207445                       (Unspecified)
system.caches.L2Cache_Controller.MT.L1_GETX |        1260     97.30%     97.30% |          15      1.16%     98.46% |           3      0.23%     98.69% |           0      0.00%     98.69% |           0      0.00%     98.69% |           0      0.00%     98.69% |          13      1.00%     99.69% |           4      0.31%    100.00% (Unspecified)
system.caches.L2Cache_Controller.MT.L1_GETX::total         1295                       (Unspecified)
system.caches.L2Cache_Controller.MT.L1_PUTX |     7373857     12.53%     12.53% |     7380284     12.54%     25.06% |     7316442     12.43%     37.49% |     7339058     12.47%     49.96% |     7340967     12.47%     62.43% |     7394970     12.56%     74.99% |     7353684     12.49%     87.48% |     7371018     12.52%    100.00% (Unspecified)
system.caches.L2Cache_Controller.MT.L1_PUTX::total     58870280                       (Unspecified)
system.caches.L2Cache_Controller.MT.L2_Replacement |           2     66.67%     66.67% |           0      0.00%     66.67% |           0      0.00%     66.67% |           0      0.00%     66.67% |           1     33.33%    100.00% |           0      0.00%    100.00% |           0      0.00%    100.00% |           0      0.00%    100.00% (Unspecified)
system.caches.L2Cache_Controller.MT.L2_Replacement::total            3                       (Unspecified)
system.caches.L2Cache_Controller.MT.L2_Replacement_clean |           7     15.91%     15.91% |           2      4.55%     20.45% |           0      0.00%     20.45% |           7     15.91%     36.36% |          10     22.73%     59.09% |           4      9.09%     68.18% |           7     15.91%     84.09% |           7     15.91%    100.00% (Unspecified)
system.caches.L2Cache_Controller.MT.L2_Replacement_clean::total           44                       (Unspecified)
system.caches.L2Cache_Controller.M_I.L1_GET_INSTR |           0      0.00%      0.00% |           0      0.00%      0.00% |           0      0.00%      0.00% |           0      0.00%      0.00% |           0      0.00%      0.00% |           0      0.00%      0.00% |           1    100.00%    100.00% |           0      0.00%    100.00% (Unspecified)
system.caches.L2Cache_Controller.M_I.L1_GET_INSTR::total            1                       (Unspecified)
system.caches.L2Cache_Controller.M_I.Mem_Ack |     7157518     12.50%     12.50% |     7159629     12.50%     25.00% |     7156112     12.50%     37.50% |     7156677     12.50%     50.00% |     7158483     12.50%     62.50% |     7157467     12.50%     75.00% |     7156666     12.50%     87.50% |     7157294     12.50%    100.00% (Unspecified)
system.caches.L2Cache_Controller.M_I.Mem_Ack::total     57259846                       (Unspecified)
system.caches.L2Cache_Controller.MT_I.WB_Data |           0      0.00%      0.00% |           0      0.00%      0.00% |           0      0.00%      0.00% |           0      0.00%      0.00% |           1    100.00%    100.00% |           0      0.00%    100.00% |           0      0.00%    100.00% |           0      0.00%    100.00% (Unspecified)
system.caches.L2Cache_Controller.MT_I.WB_Data::total            1                       (Unspecified)
system.caches.L2Cache_Controller.MT_I.Ack_all |           2    100.00%    100.00% |           0      0.00%    100.00% |           0      0.00%    100.00% |           0      0.00%    100.00% |           0      0.00%    100.00% |           0      0.00%    100.00% |           0      0.00%    100.00% |           0      0.00%    100.00% (Unspecified)
system.caches.L2Cache_Controller.MT_I.Ack_all::total            2                       (Unspecified)
system.caches.L2Cache_Controller.MCT_I.WB_Data |           0      0.00%      0.00% |           0      0.00%      0.00% |           0      0.00%      0.00% |           0      0.00%      0.00% |           3     75.00%     75.00% |           0      0.00%     75.00% |           0      0.00%     75.00% |           1     25.00%    100.00% (Unspecified)
system.caches.L2Cache_Controller.MCT_I.WB_Data::total            4                       (Unspecified)
system.caches.L2Cache_Controller.MCT_I.Ack_all |           7     17.50%     17.50% |           2      5.00%     22.50% |           0      0.00%     22.50% |           7     17.50%     40.00% |           7     17.50%     57.50% |           4     10.00%     67.50% |           7     17.50%     85.00% |           6     15.00%    100.00% (Unspecified)
system.caches.L2Cache_Controller.MCT_I.Ack_all::total           40                       (Unspecified)
system.caches.L2Cache_Controller.I_I.Ack |        6049     12.69%     12.69% |        7624     16.00%     28.69% |        4284      8.99%     37.69% |        5316     11.16%     48.84% |        7055     14.81%     63.65% |        5961     12.51%     76.16% |        5975     12.54%     88.70% |        5386     11.30%    100.00% (Unspecified)
system.caches.L2Cache_Controller.I_I.Ack::total        47650                       (Unspecified)
system.caches.L2Cache_Controller.I_I.Ack_all |        6858     11.85%     11.85% |        9449     16.32%     28.17% |        5666      9.79%     37.96% |        6654     11.49%     49.45% |        8409     14.53%     63.98% |        7106     12.28%     76.25% |        6691     11.56%     87.81% |        7057     12.19%    100.00% (Unspecified)
system.caches.L2Cache_Controller.I_I.Ack_all::total        57890                       (Unspecified)
system.caches.L2Cache_Controller.S_I.Ack |         211     13.06%     13.06% |         206     12.75%     25.80% |         214     13.24%     39.05% |         187     11.57%     50.62% |         200     12.38%     63.00% |         198     12.25%     75.25% |         194     12.00%     87.25% |         206     12.75%    100.00% (Unspecified)
system.caches.L2Cache_Controller.S_I.Ack::total         1616                       (Unspecified)
system.caches.L2Cache_Controller.S_I.Ack_all |         211     13.06%     13.06% |         206     12.75%     25.80% |         214     13.24%     39.05% |         187     11.57%     50.62% |         200     12.38%     63.00% |         198     12.25%     75.25% |         194     12.00%     87.25% |         206     12.75%    100.00% (Unspecified)
system.caches.L2Cache_Controller.S_I.Ack_all::total         1616                       (Unspecified)
system.caches.L2Cache_Controller.ISS.L1_GETS |          22     25.00%     25.00% |          17     19.32%     44.32% |          15     17.05%     61.36% |           3      3.41%     64.77% |           7      7.95%     72.73% |           8      9.09%     81.82% |           8      9.09%     90.91% |           8      9.09%    100.00% (Unspecified)
system.caches.L2Cache_Controller.ISS.L1_GETS::total           88                       (Unspecified)
system.caches.L2Cache_Controller.ISS.Mem_Data |     7147363     12.50%     12.50% |     7147160     12.50%     25.00% |     7147271     12.50%     37.50% |     7146959     12.50%     50.00% |     7146947     12.50%     62.50% |     7147241     12.50%     75.00% |     7146878     12.50%     87.50% |     7147076     12.50%    100.00% (Unspecified)
system.caches.L2Cache_Controller.ISS.Mem_Data::total     57176895                       (Unspecified)
system.caches.L2Cache_Controller.IS.L1_GET_INSTR |        2971     14.92%     14.92% |        3447     17.31%     32.22% |        1959      9.84%     42.06% |        2277     11.43%     53.49% |        2976     14.94%     68.43% |        2228     11.19%     79.62% |        2075     10.42%     90.03% |        1985      9.97%    100.00% (Unspecified)
system.caches.L2Cache_Controller.IS.L1_GET_INSTR::total        19918                       (Unspecified)
system.caches.L2Cache_Controller.IS.Mem_Data |        6773     11.82%     11.82% |        9364     16.34%     28.16% |        5618      9.80%     37.96% |        6561     11.45%     49.41% |        8341     14.56%     63.97% |        7056     12.31%     76.28% |        6613     11.54%     87.82% |        6980     12.18%    100.00% (Unspecified)
system.caches.L2Cache_Controller.IS.Mem_Data::total        57306                       (Unspecified)
system.caches.L2Cache_Controller.IM.L1_GETX |           0      0.00%      0.00% |           2    100.00%    100.00% |           0      0.00%    100.00% |           0      0.00%    100.00% |           0      0.00%    100.00% |           0      0.00%    100.00% |           0      0.00%    100.00% |           0      0.00%    100.00% (Unspecified)
system.caches.L2Cache_Controller.IM.L1_GETX::total            2                       (Unspecified)
system.caches.L2Cache_Controller.IM.Mem_Data |       19766     12.61%     12.61% |       19489     12.44%     25.05% |       19607     12.51%     37.56% |       19541     12.47%     50.03% |       19579     12.49%     62.52% |       19554     12.48%     75.00% |       19559     12.48%     87.48% |       19621     12.52%    100.00% (Unspecified)
system.caches.L2Cache_Controller.IM.Mem_Data::total       156716                       (Unspecified)
system.caches.L2Cache_Controller.SS_MB.L1_GETS |           0      0.00%      0.00% |           0      0.00%      0.00% |           0      0.00%      0.00% |           0      0.00%      0.00% |           0      0.00%      0.00% |           0      0.00%      0.00% |       15004     99.95%     99.95% |           8      0.05%    100.00% (Unspecified)
system.caches.L2Cache_Controller.SS_MB.L1_GETS::total        15012                       (Unspecified)
system.caches.L2Cache_Controller.SS_MB.L1_UPGRADE |           2    100.00%    100.00% |           0      0.00%    100.00% |           0      0.00%    100.00% |           0      0.00%    100.00% |           0      0.00%    100.00% |           0      0.00%    100.00% |           0      0.00%    100.00% |           0      0.00%    100.00% (Unspecified)
system.caches.L2Cache_Controller.SS_MB.L1_UPGRADE::total            2                       (Unspecified)
system.caches.L2Cache_Controller.SS_MB.Exclusive_Unblock |       26752     14.37%     14.37% |       22868     12.28%     26.65% |       18742     10.07%     36.71% |       18689     10.04%     46.75% |       18779     10.08%     56.83% |       18710     10.05%     66.88% |       42857     23.02%     89.90% |       18811     10.10%    100.00% (Unspecified)
system.caches.L2Cache_Controller.SS_MB.Exclusive_Unblock::total       186208                       (Unspecified)
system.caches.L2Cache_Controller.MT_MB.L1_GETS |           0      0.00%      0.00% |           1     10.00%     10.00% |           2     20.00%     30.00% |           1     10.00%     40.00% |           0      0.00%     40.00% |           0      0.00%     40.00% |           2     20.00%     60.00% |           4     40.00%    100.00% (Unspecified)
system.caches.L2Cache_Controller.MT_MB.L1_GETS::total           10                       (Unspecified)
system.caches.L2Cache_Controller.MT_MB.Exclusive_Unblock |     7378224     12.53%     12.53% |     7383369     12.54%     25.06% |     7319501     12.43%     37.49% |     7342110     12.47%     49.96% |     7344034     12.47%     62.43% |     7397993     12.56%     74.99% |     7356765     12.49%     87.48% |     7374088     12.52%    100.00% (Unspecified)
system.caches.L2Cache_Controller.MT_MB.Exclusive_Unblock::total     58896084                       (Unspecified)
system.caches.L2Cache_Controller.MT_IIB.L1_PUTX |           0      0.00%      0.00% |           0      0.00%      0.00% |           0      0.00%      0.00% |           2    100.00%    100.00% |           0      0.00%    100.00% |           0      0.00%    100.00% |           0      0.00%    100.00% |           0      0.00%    100.00% (Unspecified)
system.caches.L2Cache_Controller.MT_IIB.L1_PUTX::total            2                       (Unspecified)
system.caches.L2Cache_Controller.MT_IIB.WB_Data |       10086     19.05%     19.05% |        5249      9.91%     28.96% |        2192      4.14%     33.10% |        2205      4.16%     37.27% |        2270      4.29%     41.55% |        2241      4.23%     45.79% |       26395     49.85%     95.64% |        2311      4.36%    100.00% (Unspecified)
system.caches.L2Cache_Controller.MT_IIB.WB_Data::total        52949                       (Unspecified)
system.caches.L2Cache_Controller.MT_IIB.WB_Data_clean |       19352     12.53%     12.53% |       20294     13.14%     25.66% |       19192     12.42%     38.08% |       19130     12.38%     50.47% |       19157     12.40%     62.87% |       19096     12.36%     75.23% |       19111     12.37%     87.60% |       19164     12.40%    100.00% (Unspecified)
system.caches.L2Cache_Controller.MT_IIB.WB_Data_clean::total       154496                       (Unspecified)
system.caches.L2Cache_Controller.MT_SB.L1_UPGRADE |           0      0.00%      0.00% |           0      0.00%      0.00% |           0      0.00%      0.00% |           0      0.00%      0.00% |           0      0.00%      0.00% |           0      0.00%      0.00% |       12586    100.00%    100.00% |           0      0.00%    100.00% (Unspecified)
system.caches.L2Cache_Controller.MT_SB.L1_UPGRADE::total        12586                       (Unspecified)
system.caches.L2Cache_Controller.MT_SB.Unblock |       29438     14.19%     14.19% |       25543     12.31%     26.50% |       21384     10.31%     36.81% |       21335     10.28%     47.10% |       21427     10.33%     57.43% |       21337     10.29%     67.71% |       45506     21.94%     89.65% |       21475     10.35%    100.00% (Unspecified)
system.caches.L2Cache_Controller.MT_SB.Unblock::total       207445                       (Unspecified)
system.caches.RequestType.LD.latency_hist_seqr::bucket_size          512                       (Unspecified)
system.caches.RequestType.LD.latency_hist_seqr::max_bucket         5119                       (Unspecified)
system.caches.RequestType.LD.latency_hist_seqr::samples    929440627                       (Unspecified)
system.caches.RequestType.LD.latency_hist_seqr::mean    35.125956                       (Unspecified)
system.caches.RequestType.LD.latency_hist_seqr::gmean     2.528846                       (Unspecified)
system.caches.RequestType.LD.latency_hist_seqr::stdev   133.203360                       (Unspecified)
system.caches.RequestType.LD.latency_hist_seqr |   916495176     98.61%     98.61% |    11669480      1.26%     99.86% |       89761      0.01%     99.87% |     1139587      0.12%     99.99% |       46584      0.01%    100.00% |          39      0.00%    100.00% |           0      0.00%    100.00% |           0      0.00%    100.00% |           0      0.00%    100.00% |           0      0.00%    100.00% (Unspecified)
system.caches.RequestType.LD.latency_hist_seqr::total    929440627                       (Unspecified)
system.caches.RequestType.LD.hit_latency_hist_seqr::bucket_size            1                       (Unspecified)
system.caches.RequestType.LD.hit_latency_hist_seqr::max_bucket            9                       (Unspecified)
system.caches.RequestType.LD.hit_latency_hist_seqr::samples    674519900                       (Unspecified)
system.caches.RequestType.LD.hit_latency_hist_seqr::mean            1                       (Unspecified)
system.caches.RequestType.LD.hit_latency_hist_seqr::gmean            1                       (Unspecified)
[...]
system.timingCpu0.exec_context.thread_0.statExecutedInstType::SimdFloatMultAcc            0      0.00%     77.06% # Class of executed instruction. (Count)
system.timingCpu0.exec_context.thread_0.statExecutedInstType::SimdFloatSqrt            0      0.00%     77.06% # Class of executed instruction. (Count)
system.timingCpu0.exec_context.thread_0.statExecutedInstType::SimdReduceAdd            0      0.00%     77.06% # Class of executed instruction. (Count)
system.timingCpu0.exec_context.thread_0.statExecutedInstType::SimdReduceAlu            0      0.00%     77.06% # Class of executed instruction. (Count)
system.timingCpu0.exec_context.thread_0.statExecutedInstType::SimdReduceCmp            0      0.00%     77.06% # Class of executed instruction. (Count)
system.timingCpu0.exec_context.thread_0.statExecutedInstType::SimdFloatReduceAdd            0      0.00%     77.06% # Class of executed instruction. (Count)
system.timingCpu0.exec_context.thread_0.statExecutedInstType::SimdFloatReduceCmp            0      0.00%     77.06% # Class of executed instruction. (Count)
system.timingCpu0.exec_context.thread_0.statExecutedInstType::SimdAes            0      0.00%     77.06% # Class of executed instruction. (Count)
system.timingCpu0.exec_context.thread_0.statExecutedInstType::SimdAesMix            0      0.00%     77.06% # Class of executed instruction. (Count)
system.timingCpu0.exec_context.thread_0.statExecutedInstType::SimdSha1Hash            0      0.00%     77.06% # Class of executed instruction. (Count)
system.timingCpu0.exec_context.thread_0.statExecutedInstType::SimdSha1Hash2            0      0.00%     77.06% # Class of executed instruction. (Count)
system.timingCpu0.exec_context.thread_0.statExecutedInstType::SimdSha256Hash            0      0.00%     77.06% # Class of executed instruction. (Count)
system.timingCpu0.exec_context.thread_0.statExecutedInstType::SimdSha256Hash2            0      0.00%     77.06% # Class of executed instruction. (Count)
system.timingCpu0.exec_context.thread_0.statExecutedInstType::SimdShaSigma2            0      0.00%     77.06% # Class of executed instruction. (Count)
system.timingCpu0.exec_context.thread_0.statExecutedInstType::SimdShaSigma3            0      0.00%     77.06% # Class of executed instruction. (Count)
system.timingCpu0.exec_context.thread_0.statExecutedInstType::SimdPredAlu            0      0.00%     77.06% # Class of executed instruction. (Count)
system.timingCpu0.exec_context.thread_0.statExecutedInstType::MemRead    158031893      7.71%     84.77% # Class of executed instruction. (Count)
system.timingCpu0.exec_context.thread_0.statExecutedInstType::MemWrite      2723884      0.13%     84.90% # Class of executed instruction. (Count)
system.timingCpu0.exec_context.thread_0.statExecutedInstType::FloatMemRead    307078064     14.98%     99.88% # Class of executed instruction. (Count)
system.timingCpu0.exec_context.thread_0.statExecutedInstType::FloatMemWrite      2428110      0.12%    100.00% # Class of executed instruction. (Count)
system.timingCpu0.exec_context.thread_0.statExecutedInstType::IprAccess            0      0.00%    100.00% # Class of executed instruction. (Count)
system.timingCpu0.exec_context.thread_0.statExecutedInstType::InstPrefetch            0      0.00%    100.00% # Class of executed instruction. (Count)
system.timingCpu0.exec_context.thread_0.statExecutedInstType::total   2050020815                       # Class of executed instruction. (Count)
system.timingCpu0.mmu.dtb.rdAccesses        465241200                       # TLB accesses on read requests (Count)
system.timingCpu0.mmu.dtb.wrAccesses          5168306                       # TLB accesses on write requests (Count)
system.timingCpu0.mmu.dtb.rdMisses             131242                       # TLB misses on read requests (Count)
system.timingCpu0.mmu.dtb.wrMisses              16320                       # TLB misses on write requests (Count)
system.timingCpu0.mmu.dtb.walker.power_state.pwrStateResidencyTicks::UNDEFINED 30658443782750                       # Cumulative time (in ticks) in various power states (Tick)
system.timingCpu0.mmu.itb.rdAccesses                0                       # TLB accesses on read requests (Count)
system.timingCpu0.mmu.itb.wrAccesses       1570880162                       # TLB accesses on write requests (Count)
system.timingCpu0.mmu.itb.rdMisses                  0                       # TLB misses on read requests (Count)
system.timingCpu0.mmu.itb.wrMisses               5183                       # TLB misses on write requests (Count)
system.timingCpu0.mmu.itb.walker.power_state.pwrStateResidencyTicks::UNDEFINED 30658443782750                       # Cumulative time (in ticks) in various power states (Tick)
system.timingCpu0.power_state.pwrStateResidencyTicks::OFF 30658443782750                       # Cumulative time (in ticks) in various power states (Tick)
system.timingCpu0.thread_0.numInsts                 0                       # Number of Instructions committed (Count)
system.timingCpu0.thread_0.numOps                   0                       # Number of Ops committed (Count)
system.timingCpu0.thread_0.numMemRefs               0                       # Number of Memory References (Count)
system.timingCpu1.numCycles               20000000000                       # Number of cpu cycles simulated (Cycle)
system.timingCpu1.numWorkItemsStarted               0                       # Number of work items this cpu started (Count)
system.timingCpu1.numWorkItemsCompleted             0                       # Number of work items this cpu completed (Count)
system.timingCpu1.exec_context.thread_0.numInsts   1098552804                       # Number of instructions committed (Count)
system.timingCpu1.exec_context.thread_0.numOps   2037528102                       # Number of ops (including micro ops) committed (Count)
system.timingCpu1.exec_context.thread_0.numIntAluAccesses   1572165152                       # Number of integer alu accesses (Count)
system.timingCpu1.exec_context.thread_0.numFpAluAccesses    772975661                       # Number of float alu accesses (Count)
system.timingCpu1.exec_context.thread_0.numVecAluAccesses            0                       # Number of vector alu accesses (Count)
system.timingCpu1.exec_context.thread_0.numCallsReturns       776980                       # Number of times a function call or return occured (Count)
system.timingCpu1.exec_context.thread_0.numCondCtrlInsts    156723985                       # Number of instructions that are conditional controls (Count)
system.timingCpu1.exec_context.thread_0.numIntInsts   1572165152                       # Number of integer instructions (Count)
system.timingCpu1.exec_context.thread_0.numFpInsts    772975661                       # Number of float instructions (Count)
system.timingCpu1.exec_context.thread_0.numVecInsts            0                       # Number of vector instructions (Count)
system.timingCpu1.exec_context.thread_0.numIntRegReads   2044357328                       # Number of times the integer registers were read (Count)
system.timingCpu1.exec_context.thread_0.numIntRegWrites    946534228                       # Number of times the integer registers were written (Count)
system.timingCpu1.exec_context.thread_0.numFpRegReads    930249435                       # Number of times the floating registers were read (Count)
system.timingCpu1.exec_context.thread_0.numFpRegWrites    770547298                       # Number of times the floating registers were written (Count)
system.timingCpu1.exec_context.thread_0.numVecRegReads            0                       # Number of times the vector registers were read (Count)
system.timingCpu1.exec_context.thread_0.numVecRegWrites            0                       # Number of times the vector registers were written (Count)
system.timingCpu1.exec_context.thread_0.numVecPredRegReads            0                       # Number of times the predicate registers were read (Count)
system.timingCpu1.exec_context.thread_0.numVecPredRegWrites            0                       # Number of times the predicate registers were written (Count)
system.timingCpu1.exec_context.thread_0.numCCRegReads    788090485                       # Number of times the CC registers were read (Count)
system.timingCpu1.exec_context.thread_0.numCCRegWrites    629997955                       # Number of times the CC registers were written (Count)
system.timingCpu1.exec_context.thread_0.numMiscRegReads    784122774                       # Number of times the Misc registers were read (Count)
system.timingCpu1.exec_context.thread_0.numMiscRegWrites       172043                       # Number of times the Misc registers were written (Count)
system.timingCpu1.exec_context.thread_0.numMemRefs    467959506                       # Number of memory refs (Count)
system.timingCpu1.exec_context.thread_0.numLoadInsts    463769976                       # Number of load instructions (Count)
system.timingCpu1.exec_context.thread_0.numStoreInsts      4189530                       # Number of store instructions (Count)
system.timingCpu1.exec_context.thread_0.numIdleCycles            0                       # Number of idle cycles (Cycle)
system.timingCpu1.exec_context.thread_0.numBusyCycles  20000000000                       # Number of busy cycles (Cycle)
system.timingCpu1.exec_context.thread_0.notIdleFraction            1                       # Percentage of non-idle cycles (Ratio)
system.timingCpu1.exec_context.thread_0.idleFraction            0                       # Percentage of idle cycles (Ratio)
system.timingCpu1.exec_context.thread_0.numBranches    157989742                       # Number of branches fetched (Count)
system.timingCpu1.exec_context.thread_0.statExecutedInstType::No_OpClass       653260      0.03%      0.03% # Class of executed instruction. (Count)
system.timingCpu1.exec_context.thread_0.statExecutedInstType::IntAlu   1105271650     54.25%     54.28% # Class of executed instruction. (Count)
system.timingCpu1.exec_context.thread_0.statExecutedInstType::IntMult       116059      0.01%     54.28% # Class of executed instruction. (Count)
system.timingCpu1.exec_context.thread_0.statExecutedInstType::IntDiv       216868      0.01%     54.29% # Class of executed instruction. (Count)
system.timingCpu1.exec_context.thread_0.statExecutedInstType::FloatAdd    153618357      7.54%     61.83% # Class of executed instruction. (Count)
system.timingCpu1.exec_context.thread_0.statExecutedInstType::FloatCmp            0      0.00%     61.83% # Class of executed instruction. (Count)
system.timingCpu1.exec_context.thread_0.statExecutedInstType::FloatCvt          192      0.00%     61.83% # Class of executed instruction. (Count)
system.timingCpu1.exec_context.thread_0.statExecutedInstType::FloatMult            0      0.00%     61.83% # Class of executed instruction. (Count)
system.timingCpu1.exec_context.thread_0.statExecutedInstType::FloatMultAcc            0      0.00%     61.83% # Class of executed instruction. (Count)
system.timingCpu1.exec_context.thread_0.statExecutedInstType::FloatDiv            0      0.00%     61.83% # Class of executed instruction. (Count)
system.timingCpu1.exec_context.thread_0.statExecutedInstType::FloatMisc            0      0.00%     61.83% # Class of executed instruction. (Count)
system.timingCpu1.exec_context.thread_0.statExecutedInstType::FloatSqrt            0      0.00%     61.83% # Class of executed instruction. (Count)
system.timingCpu1.exec_context.thread_0.statExecutedInstType::SimdAdd            0      0.00%     61.83% # Class of executed instruction. (Count)
system.timingCpu1.exec_context.thread_0.statExecutedInstType::SimdAddAcc            0      0.00%     61.83% # Class of executed instruction. (Count)
system.timingCpu1.exec_context.thread_0.statExecutedInstType::SimdAlu      1255558      0.06%     61.90% # Class of executed instruction. (Count)
system.timingCpu1.exec_context.thread_0.statExecutedInstType::SimdCmp            0      0.00%     61.90% # Class of executed instruction. (Count)
system.timingCpu1.exec_context.thread_0.statExecutedInstType::SimdCvt            0      0.00%     61.90% # Class of executed instruction. (Count)
system.timingCpu1.exec_context.thread_0.statExecutedInstType::SimdMisc           16      0.00%     61.90% # Class of executed instruction. (Count)
system.timingCpu1.exec_context.thread_0.statExecutedInstType::SimdMult            0      0.00%     61.90% # Class of executed instruction. (Count)
system.timingCpu1.exec_context.thread_0.statExecutedInstType::SimdMultAcc            0      0.00%     61.90% # Class of executed instruction. (Count)
system.timingCpu1.exec_context.thread_0.statExecutedInstType::SimdShift            0      0.00%     61.90% # Class of executed instruction. (Count)
system.timingCpu1.exec_context.thread_0.statExecutedInstType::SimdShiftAcc            0      0.00%     61.90% # Class of executed instruction. (Count)
system.timingCpu1.exec_context.thread_0.statExecutedInstType::SimdDiv            0      0.00%     61.90% # Class of executed instruction. (Count)
system.timingCpu1.exec_context.thread_0.statExecutedInstType::SimdSqrt            0      0.00%     61.90% # Class of executed instruction. (Count)
system.timingCpu1.exec_context.thread_0.statExecutedInstType::SimdFloatAdd    154218318      7.57%     69.46% # Class of executed instruction. (Count)
system.timingCpu1.exec_context.thread_0.statExecutedInstType::SimdFloatAlu            0      0.00%     69.46% # Class of executed instruction. (Count)
system.timingCpu1.exec_context.thread_0.statExecutedInstType::SimdFloatCmp            0      0.00%     69.46% # Class of executed instruction. (Count)
system.timingCpu1.exec_context.thread_0.statExecutedInstType::SimdFloatCvt            0      0.00%     69.46% # Class of executed instruction. (Count)
system.timingCpu1.exec_context.thread_0.statExecutedInstType::SimdFloatDiv           16      0.00%     69.46% # Class of executed instruction. (Count)
system.timingCpu1.exec_context.thread_0.statExecutedInstType::SimdFloatMisc            0      0.00%     69.46% # Class of executed instruction. (Count)
system.timingCpu1.exec_context.thread_0.statExecutedInstType::SimdFloatMult    154218302      7.57%     77.03% # Class of executed instruction. (Count)
system.timingCpu1.exec_context.thread_0.statExecutedInstType::SimdFloatMultAcc            0      0.00%     77.03% # Class of executed instruction. (Count)
system.timingCpu1.exec_context.thread_0.statExecutedInstType::SimdFloatSqrt            0      0.00%     77.03% # Class of executed instruction. (Count)
system.timingCpu1.exec_context.thread_0.statExecutedInstType::SimdReduceAdd            0      0.00%     77.03% # Class of executed instruction. (Count)
system.timingCpu1.exec_context.thread_0.statExecutedInstType::SimdReduceAlu            0      0.00%     77.03% # Class of executed instruction. (Count)
system.timingCpu1.exec_context.thread_0.statExecutedInstType::SimdReduceCmp            0      0.00%     77.03% # Class of executed instruction. (Count)
system.timingCpu1.exec_context.thread_0.statExecutedInstType::SimdFloatReduceAdd            0      0.00%     77.03% # Class of executed instruction. (Count)
system.timingCpu1.exec_context.thread_0.statExecutedInstType::SimdFloatReduceCmp            0      0.00%     77.03% # Class of executed instruction. (Count)
system.timingCpu1.exec_context.thread_0.statExecutedInstType::SimdAes            0      0.00%     77.03% # Class of executed instruction. (Count)
system.timingCpu1.exec_context.thread_0.statExecutedInstType::SimdAesMix            0      0.00%     77.03% # Class of executed instruction. (Count)
system.timingCpu1.exec_context.thread_0.statExecutedInstType::SimdSha1Hash            0      0.00%     77.03% # Class of executed instruction. (Count)
system.timingCpu1.exec_context.thread_0.statExecutedInstType::SimdSha1Hash2            0      0.00%     77.03% # Class of executed instruction. (Count)
system.timingCpu1.exec_context.thread_0.statExecutedInstType::SimdSha256Hash            0      0.00%     77.03% # Class of executed instruction. (Count)
system.timingCpu1.exec_context.thread_0.statExecutedInstType::SimdSha256Hash2            0      0.00%     77.03% # Class of executed instruction. (Count)
system.timingCpu1.exec_context.thread_0.statExecutedInstType::SimdShaSigma2            0      0.00%     77.03% # Class of executed instruction. (Count)
system.timingCpu1.exec_context.thread_0.statExecutedInstType::SimdShaSigma3            0      0.00%     77.03% # Class of executed instruction. (Count)
system.timingCpu1.exec_context.thread_0.statExecutedInstType::SimdPredAlu            0      0.00%     77.03% # Class of executed instruction. (Count)
system.timingCpu1.exec_context.thread_0.statExecutedInstType::MemRead    156533253      7.68%     84.72% # Class of executed instruction. (Count)
system.timingCpu1.exec_context.thread_0.statExecutedInstType::MemWrite      1761375      0.09%     84.80% # Class of executed instruction. (Count)
system.timingCpu1.exec_context.thread_0.statExecutedInstType::FloatMemRead    307236723     15.08%     99.88% # Class of executed instruction. (Count)
system.timingCpu1.exec_context.thread_0.statExecutedInstType::FloatMemWrite      2428155      0.12%    100.00% # Class of executed instruction. (Count)
system.timingCpu1.exec_context.thread_0.statExecutedInstType::IprAccess            0      0.00%    100.00% # Class of executed instruction. (Count)
system.timingCpu1.exec_context.thread_0.statExecutedInstType::InstPrefetch            0      0.00%    100.00% # Class of executed instruction. (Count)
system.timingCpu1.exec_context.thread_0.statExecutedInstType::total   2037528102                       # Class of executed instruction. (Count)
system.timingCpu1.mmu.dtb.rdAccesses        463888523                       # TLB accesses on read requests (Count)
system.timingCpu1.mmu.dtb.wrAccesses          4201041                       # TLB accesses on write requests (Count)
system.timingCpu1.mmu.dtb.rdMisses             118920                       # TLB misses on read requests (Count)
system.timingCpu1.mmu.dtb.wrMisses              11671                       # TLB misses on write requests (Count)
system.timingCpu1.mmu.dtb.walker.power_state.pwrStateResidencyTicks::UNDEFINED 30658443782750                       # Cumulative time (in ticks) in various power states (Tick)
system.timingCpu1.mmu.itb.rdAccesses                0                       # TLB accesses on read requests (Count)
system.timingCpu1.mmu.itb.wrAccesses       1564819379                       # TLB accesses on write requests (Count)
system.timingCpu1.mmu.itb.rdMisses                  0                       # TLB misses on read requests (Count)
system.timingCpu1.mmu.itb.wrMisses               5200                       # TLB misses on write requests (Count)
system.timingCpu1.mmu.itb.walker.power_state.pwrStateResidencyTicks::UNDEFINED 30658443782750                       # Cumulative time (in ticks) in various power states (Tick)
system.timingCpu1.power_state.pwrStateResidencyTicks::OFF 30658443782750                       # Cumulative time (in ticks) in various power states (Tick)
system.timingCpu1.thread_0.numInsts                 0                       # Number of Instructions committed (Count)
system.timingCpu1.thread_0.numOps                   0                       # Number of Ops committed (Count)
system.timingCpu1.thread_0.numMemRefs               0                       # Number of Memory References (Count)
system.workload.inst.arm                            0                       # number of arm instructions executed (Count)
system.workload.inst.quiesce                        0                       # number of quiesce instructions executed (Count)

---------- End Simulation Statistics   ----------
