
---------- Begin Simulation Statistics ----------
simSeconds                                   0.020000                       # Number of seconds simulated (Second)
simTicks                                  20000000000                       # Number of ticks simulated (Tick)
finalTick                                 20000000000                       # Number of ticks from beginning of simulation (restored from checkpoints and never reset) (Tick)
simFreq                                  1000000000000                       # The number of ticks per simulated second ((Tick/Second))
hostSeconds                                    149.98                       # Real time elapsed on the host (Second)
hostTickRate                                133351935                       # The number of ticks simulated per host second (ticks/s) ((Tick/Second))
hostMemory                                    3253828                       # Number of bytes of host memory used (Byte)
system.clk_domain.clock                           250                       # Clock period in ticks (Tick)
system.clk_domain.voltage_domain.voltage            1                       # Voltage in Volts (Volt)
system.far_mem_ctrl.priorityMinLatency   0.000000000000                       # per QoS priority minimum request to response latency (Second)
system.far_mem_ctrl.priorityMaxLatency   0.000000000000                       # per QoS priority maximum request to response latency (Second)
system.far_mem_ctrl.numReadWriteTurnArounds            0                       # Number of turnarounds from READ to WRITE (Count)
system.far_mem_ctrl.numWriteReadTurnArounds            0                       # Number of turnarounds from WRITE to READ (Count)
system.far_mem_ctrl.numStayReadState             5136                       # Number of times bus staying in READ state (Count)
system.far_mem_ctrl.numStayWriteState               0                       # Number of times bus staying in WRITE state (Count)
system.far_mem_ctrl.readReqs                        0                       # Number of read requests accepted (Count)
system.far_mem_ctrl.writeReqs                       0                       # Number of write requests accepted (Count)
system.far_mem_ctrl.readBursts                      0                       # Number of controller read bursts, including those serviced by the write queue (Count)
system.far_mem_ctrl.writeBursts                     0                       # Number of controller write bursts, including those merged in the write queue (Count)
system.far_mem_ctrl.servicedByWrQ                   0                       # Number of controller read bursts serviced by the write queue (Count)
system.far_mem_ctrl.mergedWrBursts                  0                       # Number of controller write bursts merged with an existing one (Count)
system.far_mem_ctrl.avgRdQLen                    0.00                       # Average read queue length when enqueuing ((Count/Tick))
system.far_mem_ctrl.avgWrQLen                    0.00                       # Average write queue length when enqueuing ((Count/Tick))
system.far_mem_ctrl.numRdRetry                      0                       # Number of times read queue was full causing retry (Count)
system.far_mem_ctrl.numWrRetry                      0                       # Number of times write queue was full causing retry (Count)
system.far_mem_ctrl.readPktSize::0                  0                       # Read request sizes (log2) (Count)
system.far_mem_ctrl.readPktSize::1                  0                       # Read request sizes (log2) (Count)
system.far_mem_ctrl.readPktSize::2                  0                       # Read request sizes (log2) (Count)
system.far_mem_ctrl.readPktSize::3                  0                       # Read request sizes (log2) (Count)
system.far_mem_ctrl.readPktSize::4                  0                       # Read request sizes (log2) (Count)
system.far_mem_ctrl.readPktSize::5                  0                       # Read request sizes (log2) (Count)
system.far_mem_ctrl.readPktSize::6                  0                       # Read request sizes (log2) (Count)
system.far_mem_ctrl.writePktSize::0                 0                       # Write request sizes (log2) (Count)
system.far_mem_ctrl.writePktSize::1                 0                       # Write request sizes (log2) (Count)
system.far_mem_ctrl.writePktSize::2                 0                       # Write request sizes (log2) (Count)
system.far_mem_ctrl.writePktSize::3                 0                       # Write request sizes (log2) (Count)
system.far_mem_ctrl.writePktSize::4                 0                       # Write request sizes (log2) (Count)
system.far_mem_ctrl.writePktSize::5                 0                       # Write request sizes (log2) (Count)
system.far_mem_ctrl.writePktSize::6                 0                       # Write request sizes (log2) (Count)
system.far_mem_ctrl.rdQLenPdf::0                    0                       # What read queue length does an incoming req see (Count)
system.far_mem_ctrl.rdQLenPdf::1                    0                       # What read queue length does an incoming req see (Count)
system.far_mem_ctrl.rdQLenPdf::2                    0                       # What read queue length does an incoming req see (Count)
system.far_mem_ctrl.rdQLenPdf::3                    0                       # What read queue length does an incoming req see (Count)
system.far_mem_ctrl.rdQLenPdf::4                    0                       # What read queue length does an incoming req see (Count)
system.far_mem_ctrl.rdQLenPdf::5                    0                       # What read queue length does an incoming req see (Count)
system.far_mem_ctrl.rdQLenPdf::6                    0                       # What read queue length does an incoming req see (Count)
system.far_mem_ctrl.rdQLenPdf::7                    0                       # What read queue length does an incoming req see (Count)
system.far_mem_ctrl.rdQLenPdf::8                    0                       # What read queue length does an incoming req see (Count)
system.far_mem_ctrl.rdQLenPdf::9                    0                       # What read queue length does an incoming req see (Count)
system.far_mem_ctrl.rdQLenPdf::10                   0                       # What read queue length does an incoming req see (Count)
system.far_mem_ctrl.rdQLenPdf::11                   0                       # What read queue length does an incoming req see (Count)
system.far_mem_ctrl.rdQLenPdf::12                   0                       # What read queue length does an incoming req see (Count)
system.far_mem_ctrl.rdQLenPdf::13                   0                       # What read queue length does an incoming req see (Count)
system.far_mem_ctrl.rdQLenPdf::14                   0                       # What read queue length does an incoming req see (Count)
system.far_mem_ctrl.rdQLenPdf::15                   0                       # What read queue length does an incoming req see (Count)
system.far_mem_ctrl.rdQLenPdf::16                   0                       # What read queue length does an incoming req see (Count)
system.far_mem_ctrl.rdQLenPdf::17                   0                       # What read queue length does an incoming req see (Count)
system.far_mem_ctrl.rdQLenPdf::18                   0                       # What read queue length does an incoming req see (Count)
system.far_mem_ctrl.rdQLenPdf::19                   0                       # What read queue length does an incoming req see (Count)
system.far_mem_ctrl.rdQLenPdf::20                   0                       # What read queue length does an incoming req see (Count)
system.far_mem_ctrl.rdQLenPdf::21                   0                       # What read queue length does an incoming req see (Count)
system.far_mem_ctrl.rdQLenPdf::22                   0                       # What read queue length does an incoming req see (Count)
system.far_mem_ctrl.rdQLenPdf::23                   0                       # What read queue length does an incoming req see (Count)
system.far_mem_ctrl.rdQLenPdf::24                   0                       # What read queue length does an incoming req see (Count)
system.far_mem_ctrl.rdQLenPdf::25                   0                       # What read queue length does an incoming req see (Count)
system.far_mem_ctrl.rdQLenPdf::26                   0                       # What read queue length does an incoming req see (Count)
system.far_mem_ctrl.rdQLenPdf::27                   0                       # What read queue length does an incoming req see (Count)
system.far_mem_ctrl.rdQLenPdf::28                   0                       # What read queue length does an incoming req see (Count)
system.far_mem_ctrl.rdQLenPdf::29                   0                       # What read queue length does an incoming req see (Count)
system.far_mem_ctrl.rdQLenPdf::30                   0                       # What read queue length does an incoming req see (Count)
system.far_mem_ctrl.rdQLenPdf::31                   0                       # What read queue length does an incoming req see (Count)
system.far_mem_ctrl.rdQLenPdf::32                   0                       # What read queue length does an incoming req see (Count)
system.far_mem_ctrl.rdQLenPdf::33                   0                       # What read queue length does an incoming req see (Count)
system.far_mem_ctrl.rdQLenPdf::34                   0                       # What read queue length does an incoming req see (Count)
system.far_mem_ctrl.rdQLenPdf::35                   0                       # What read queue length does an incoming req see (Count)
system.far_mem_ctrl.rdQLenPdf::36                   0                       # What read queue length does an incoming req see (Count)
system.far_mem_ctrl.rdQLenPdf::37                   0                       # What read queue length does an incoming req see (Count)
system.far_mem_ctrl.rdQLenPdf::38                   0                       # What read queue length does an incoming req see (Count)
system.far_mem_ctrl.rdQLenPdf::39                   0                       # What read queue length does an incoming req see (Count)
system.far_mem_ctrl.rdQLenPdf::40                   0                       # What read queue length does an incoming req see (Count)
system.far_mem_ctrl.rdQLenPdf::41                   0                       # What read queue length does an incoming req see (Count)
system.far_mem_ctrl.rdQLenPdf::42                   0                       # What read queue length does an incoming req see (Count)
system.far_mem_ctrl.rdQLenPdf::43                   0                       # What read queue length does an incoming req see (Count)
system.far_mem_ctrl.rdQLenPdf::44                   0                       # What read queue length does an incoming req see (Count)
system.far_mem_ctrl.rdQLenPdf::45                   0                       # What read queue length does an incoming req see (Count)
system.far_mem_ctrl.rdQLenPdf::46                   0                       # What read queue length does an incoming req see (Count)
system.far_mem_ctrl.rdQLenPdf::47                   0                       # What read queue length does an incoming req see (Count)
system.far_mem_ctrl.rdQLenPdf::48                   0                       # What read queue length does an incoming req see (Count)
system.far_mem_ctrl.rdQLenPdf::49                   0                       # What read queue length does an incoming req see (Count)
system.far_mem_ctrl.rdQLenPdf::50                   0                       # What read queue length does an incoming req see (Count)
system.far_mem_ctrl.rdQLenPdf::51                   0                       # What read queue length does an incoming req see (Count)
system.far_mem_ctrl.rdQLenPdf::52                   0                       # What read queue length does an incoming req see (Count)
system.far_mem_ctrl.rdQLenPdf::53                   0                       # What read queue length does an incoming req see (Count)
system.far_mem_ctrl.rdQLenPdf::54                   0                       # What read queue length does an incoming req see (Count)
system.far_mem_ctrl.rdQLenPdf::55                   0                       # What read queue length does an incoming req see (Count)
system.far_mem_ctrl.rdQLenPdf::56                   0                       # What read queue length does an incoming req see (Count)
system.far_mem_ctrl.rdQLenPdf::57                   0                       # What read queue length does an incoming req see (Count)
system.far_mem_ctrl.rdQLenPdf::58                   0                       # What read queue length does an incoming req see (Count)
system.far_mem_ctrl.rdQLenPdf::59                   0                       # What read queue length does an incoming req see (Count)
system.far_mem_ctrl.rdQLenPdf::60                   0                       # What read queue length does an incoming req see (Count)
system.far_mem_ctrl.rdQLenPdf::61                   0                       # What read queue length does an incoming req see (Count)
system.far_mem_ctrl.rdQLenPdf::62                   0                       # What read queue length does an incoming req see (Count)
system.far_mem_ctrl.rdQLenPdf::63                   0                       # What read queue length does an incoming req see (Count)
system.far_mem_ctrl.wrQLenPdf::0                    0                       # What write queue length does an incoming req see (Count)
system.far_mem_ctrl.wrQLenPdf::1                    0                       # What write queue length does an incoming req see (Count)
system.far_mem_ctrl.wrQLenPdf::2                    0                       # What write queue length does an incoming req see (Count)
system.far_mem_ctrl.wrQLenPdf::3                    0                       # What write queue length does an incoming req see (Count)
system.far_mem_ctrl.wrQLenPdf::4                    0                       # What write queue length does an incoming req see (Count)
system.far_mem_ctrl.wrQLenPdf::5                    0                       # What write queue length does an incoming req see (Count)
system.far_mem_ctrl.wrQLenPdf::6                    0                       # What write queue length does an incoming req see (Count)
system.far_mem_ctrl.wrQLenPdf::7                    0                       # What write queue length does an incoming req see (Count)
system.far_mem_ctrl.wrQLenPdf::8                    0                       # What write queue length does an incoming req see (Count)
system.far_mem_ctrl.wrQLenPdf::9                    0                       # What write queue length does an incoming req see (Count)
system.far_mem_ctrl.wrQLenPdf::10                   0                       # What write queue length does an incoming req see (Count)
system.far_mem_ctrl.wrQLenPdf::11                   0                       # What write queue length does an incoming req see (Count)
system.far_mem_ctrl.wrQLenPdf::12                   0                       # What write queue length does an incoming req see (Count)
system.far_mem_ctrl.wrQLenPdf::13                   0                       # What write queue length does an incoming req see (Count)
system.far_mem_ctrl.wrQLenPdf::14                   0                       # What write queue length does an incoming req see (Count)
system.far_mem_ctrl.wrQLenPdf::15                   0                       # What write queue length does an incoming req see (Count)
system.far_mem_ctrl.wrQLenPdf::16                   0                       # What write queue length does an incoming req see (Count)
system.far_mem_ctrl.wrQLenPdf::17                   0                       # What write queue length does an incoming req see (Count)
system.far_mem_ctrl.wrQLenPdf::18                   0                       # What write queue length does an incoming req see (Count)
system.far_mem_ctrl.wrQLenPdf::19                   0                       # What write queue length does an incoming req see (Count)
system.far_mem_ctrl.wrQLenPdf::20                   0                       # What write queue length does an incoming req see (Count)
system.far_mem_ctrl.wrQLenPdf::21                   0                       # What write queue length does an incoming req see (Count)
system.far_mem_ctrl.wrQLenPdf::22                   0                       # What write queue length does an incoming req see (Count)
system.far_mem_ctrl.wrQLenPdf::23                   0                       # What write queue length does an incoming req see (Count)
system.far_mem_ctrl.wrQLenPdf::24                   0                       # What write queue length does an incoming req see (Count)
system.far_mem_ctrl.wrQLenPdf::25                   0                       # What write queue length does an incoming req see (Count)
system.far_mem_ctrl.wrQLenPdf::26                   0                       # What write queue length does an incoming req see (Count)
system.far_mem_ctrl.wrQLenPdf::27                   0                       # What write queue length does an incoming req see (Count)
system.far_mem_ctrl.wrQLenPdf::28                   0                       # What write queue length does an incoming req see (Count)
system.far_mem_ctrl.wrQLenPdf::29                   0                       # What write queue length does an incoming req see (Count)
system.far_mem_ctrl.wrQLenPdf::30                   0                       # What write queue length does an incoming req see (Count)
system.far_mem_ctrl.wrQLenPdf::31                   0                       # What write queue length does an incoming req see (Count)
system.far_mem_ctrl.wrQLenPdf::32                   0                       # What write queue length does an incoming req see (Count)
system.far_mem_ctrl.wrQLenPdf::33                   0                       # What write queue length does an incoming req see (Count)
system.far_mem_ctrl.wrQLenPdf::34                   0                       # What write queue length does an incoming req see (Count)
system.far_mem_ctrl.wrQLenPdf::35                   0                       # What write queue length does an incoming req see (Count)
system.far_mem_ctrl.wrQLenPdf::36                   0                       # What write queue length does an incoming req see (Count)
system.far_mem_ctrl.wrQLenPdf::37                   0                       # What write queue length does an incoming req see (Count)
system.far_mem_ctrl.wrQLenPdf::38                   0                       # What write queue length does an incoming req see (Count)
system.far_mem_ctrl.wrQLenPdf::39                   0                       # What write queue length does an incoming req see (Count)
system.far_mem_ctrl.wrQLenPdf::40                   0                       # What write queue length does an incoming req see (Count)
system.far_mem_ctrl.wrQLenPdf::41                   0                       # What write queue length does an incoming req see (Count)
system.far_mem_ctrl.wrQLenPdf::42                   0                       # What write queue length does an incoming req see (Count)
system.far_mem_ctrl.wrQLenPdf::43                   0                       # What write queue length does an incoming req see (Count)
system.far_mem_ctrl.wrQLenPdf::44                   0                       # What write queue length does an incoming req see (Count)
system.far_mem_ctrl.wrQLenPdf::45                   0                       # What write queue length does an incoming req see (Count)
system.far_mem_ctrl.wrQLenPdf::46                   0                       # What write queue length does an incoming req see (Count)
system.far_mem_ctrl.wrQLenPdf::47                   0                       # What write queue length does an incoming req see (Count)
system.far_mem_ctrl.wrQLenPdf::48                   0                       # What write queue length does an incoming req see (Count)
system.far_mem_ctrl.wrQLenPdf::49                   0                       # What write queue length does an incoming req see (Count)
system.far_mem_ctrl.wrQLenPdf::50                   0                       # What write queue length does an incoming req see (Count)
system.far_mem_ctrl.wrQLenPdf::51                   0                       # What write queue length does an incoming req see (Count)
system.far_mem_ctrl.wrQLenPdf::52                   0                       # What write queue length does an incoming req see (Count)
system.far_mem_ctrl.wrQLenPdf::53                   0                       # What write queue length does an incoming req see (Count)
system.far_mem_ctrl.wrQLenPdf::54                   0                       # What write queue length does an incoming req see (Count)
system.far_mem_ctrl.wrQLenPdf::55                   0                       # What write queue length does an incoming req see (Count)
system.far_mem_ctrl.wrQLenPdf::56                   0                       # What write queue length does an incoming req see (Count)
system.far_mem_ctrl.wrQLenPdf::57                   0                       # What write queue length does an incoming req see (Count)
system.far_mem_ctrl.wrQLenPdf::58                   0                       # What write queue length does an incoming req see (Count)
system.far_mem_ctrl.wrQLenPdf::59                   0                       # What write queue length does an incoming req see (Count)
system.far_mem_ctrl.wrQLenPdf::60                   0                       # What write queue length does an incoming req see (Count)
system.far_mem_ctrl.wrQLenPdf::61                   0                       # What write queue length does an incoming req see (Count)
system.far_mem_ctrl.wrQLenPdf::62                   0                       # What write queue length does an incoming req see (Count)
system.far_mem_ctrl.wrQLenPdf::63                   0                       # What write queue length does an incoming req see (Count)
system.far_mem_ctrl.wrQLenPdf::64                   0                       # What write queue length does an incoming req see (Count)
system.far_mem_ctrl.wrQLenPdf::65                   0                       # What write queue length does an incoming req see (Count)
system.far_mem_ctrl.wrQLenPdf::66                   0                       # What write queue length does an incoming req see (Count)
system.far_mem_ctrl.wrQLenPdf::67                   0                       # What write queue length does an incoming req see (Count)
system.far_mem_ctrl.wrQLenPdf::68                   0                       # What write queue length does an incoming req see (Count)
system.far_mem_ctrl.wrQLenPdf::69                   0                       # What write queue length does an incoming req see (Count)
system.far_mem_ctrl.wrQLenPdf::70                   0                       # What write queue length does an incoming req see (Count)
system.far_mem_ctrl.wrQLenPdf::71                   0                       # What write queue length does an incoming req see (Count)
system.far_mem_ctrl.wrQLenPdf::72                   0                       # What write queue length does an incoming req see (Count)
system.far_mem_ctrl.wrQLenPdf::73                   0                       # What write queue length does an incoming req see (Count)
system.far_mem_ctrl.wrQLenPdf::74                   0                       # What write queue length does an incoming req see (Count)
system.far_mem_ctrl.wrQLenPdf::75                   0                       # What write queue length does an incoming req see (Count)
system.far_mem_ctrl.wrQLenPdf::76                   0                       # What write queue length does an incoming req see (Count)
system.far_mem_ctrl.wrQLenPdf::77                   0                       # What write queue length does an incoming req see (Count)
system.far_mem_ctrl.wrQLenPdf::78                   0                       # What write queue length does an incoming req see (Count)
system.far_mem_ctrl.wrQLenPdf::79                   0                       # What write queue length does an incoming req see (Count)
system.far_mem_ctrl.wrQLenPdf::80                   0                       # What write queue length does an incoming req see (Count)
system.far_mem_ctrl.wrQLenPdf::81                   0                       # What write queue length does an incoming req see (Count)
system.far_mem_ctrl.wrQLenPdf::82                   0                       # What write queue length does an incoming req see (Count)
system.far_mem_ctrl.wrQLenPdf::83                   0                       # What write queue length does an incoming req see (Count)
system.far_mem_ctrl.wrQLenPdf::84                   0                       # What write queue length does an incoming req see (Count)
system.far_mem_ctrl.wrQLenPdf::85                   0                       # What write queue length does an incoming req see (Count)
system.far_mem_ctrl.wrQLenPdf::86                   0                       # What write queue length does an incoming req see (Count)
system.far_mem_ctrl.wrQLenPdf::87                   0                       # What write queue length does an incoming req see (Count)
system.far_mem_ctrl.wrQLenPdf::88                   0                       # What write queue length does an incoming req see (Count)
system.far_mem_ctrl.wrQLenPdf::89                   0                       # What write queue length does an incoming req see (Count)
system.far_mem_ctrl.wrQLenPdf::90                   0                       # What write queue length does an incoming req see (Count)
system.far_mem_ctrl.wrQLenPdf::91                   0                       # What write queue length does an incoming req see (Count)
system.far_mem_ctrl.wrQLenPdf::92                   0                       # What write queue length does an incoming req see (Count)
system.far_mem_ctrl.wrQLenPdf::93                   0                       # What write queue length does an incoming req see (Count)
system.far_mem_ctrl.wrQLenPdf::94                   0                       # What write queue length does an incoming req see (Count)
system.far_mem_ctrl.wrQLenPdf::95                   0                       # What write queue length does an incoming req see (Count)
system.far_mem_ctrl.wrQLenPdf::96                   0                       # What write queue length does an incoming req see (Count)
system.far_mem_ctrl.wrQLenPdf::97                   0                       # What write queue length does an incoming req see (Count)
system.far_mem_ctrl.wrQLenPdf::98                   0                       # What write queue length does an incoming req see (Count)
system.far_mem_ctrl.wrQLenPdf::99                   0                       # What write queue length does an incoming req see (Count)
system.far_mem_ctrl.wrQLenPdf::100                  0                       # What write queue length does an incoming req see (Count)
system.far_mem_ctrl.wrQLenPdf::101                  0                       # What write queue length does an incoming req see (Count)
system.far_mem_ctrl.wrQLenPdf::102                  0                       # What write queue length does an incoming req see (Count)
system.far_mem_ctrl.wrQLenPdf::103                  0                       # What write queue length does an incoming req see (Count)
system.far_mem_ctrl.wrQLenPdf::104                  0                       # What write queue length does an incoming req see (Count)
system.far_mem_ctrl.wrQLenPdf::105                  0                       # What write queue length does an incoming req see (Count)
system.far_mem_ctrl.wrQLenPdf::106                  0                       # What write queue length does an incoming req see (Count)
system.far_mem_ctrl.wrQLenPdf::107                  0                       # What write queue length does an incoming req see (Count)
system.far_mem_ctrl.wrQLenPdf::108                  0                       # What write queue length does an incoming req see (Count)
system.far_mem_ctrl.wrQLenPdf::109                  0                       # What write queue length does an incoming req see (Count)
system.far_mem_ctrl.wrQLenPdf::110                  0                       # What write queue length does an incoming req see (Count)
system.far_mem_ctrl.wrQLenPdf::111                  0                       # What write queue length does an incoming req see (Count)
system.far_mem_ctrl.wrQLenPdf::112                  0                       # What write queue length does an incoming req see (Count)
system.far_mem_ctrl.wrQLenPdf::113                  0                       # What write queue length does an incoming req see (Count)
system.far_mem_ctrl.wrQLenPdf::114                  0                       # What write queue length does an incoming req see (Count)
system.far_mem_ctrl.wrQLenPdf::115                  0                       # What write queue length does an incoming req see (Count)
system.far_mem_ctrl.wrQLenPdf::116                  0                       # What write queue length does an incoming req see (Count)
system.far_mem_ctrl.wrQLenPdf::117                  0                       # What write queue length does an incoming req see (Count)
system.far_mem_ctrl.wrQLenPdf::118                  0                       # What write queue length does an incoming req see (Count)
system.far_mem_ctrl.wrQLenPdf::119                  0                       # What write queue length does an incoming req see (Count)
system.far_mem_ctrl.wrQLenPdf::120                  0                       # What write queue length does an incoming req see (Count)
system.far_mem_ctrl.wrQLenPdf::121                  0                       # What write queue length does an incoming req see (Count)
system.far_mem_ctrl.wrQLenPdf::122                  0                       # What write queue length does an incoming req see (Count)
system.far_mem_ctrl.wrQLenPdf::123                  0                       # What write queue length does an incoming req see (Count)
system.far_mem_ctrl.wrQLenPdf::124                  0                       # What write queue length does an incoming req see (Count)
system.far_mem_ctrl.wrQLenPdf::125                  0                       # What write queue length does an incoming req see (Count)
system.far_mem_ctrl.wrQLenPdf::126                  0                       # What write queue length does an incoming req see (Count)
system.far_mem_ctrl.wrQLenPdf::127                  0                       # What write queue length does an incoming req see (Count)
system.far_mem_ctrl.bytesReadWrQ                    0                       # Total number of bytes read from write queue (Byte)
system.far_mem_ctrl.bytesReadSys                    0                       # Total read bytes from the system interface side (Byte)
system.far_mem_ctrl.bytesWrittenSys                 0                       # Total written bytes from the system interface side (Byte)
system.far_mem_ctrl.avgRdBWSys             0.00000000                       # Average system read bandwidth in Byte/s ((Byte/Second))
system.far_mem_ctrl.avgWrBWSys             0.00000000                       # Average system write bandwidth in Byte/s ((Byte/Second))
system.far_mem_ctrl.totGap                          0                       # Total gap between requests (Tick)
system.far_mem_ctrl.avgGap                        nan                       # Average gap between requests ((Tick/Count))
system.far_mem_ctrl.dram.readBursts                 0                       # Number of DRAM read bursts (Count)
system.far_mem_ctrl.dram.writeBursts                0                       # Number of DRAM write bursts (Count)
system.far_mem_ctrl.dram.perBankRdBursts::0            0                       # Per bank write bursts (Count)
system.far_mem_ctrl.dram.perBankRdBursts::1            0                       # Per bank write bursts (Count)
system.far_mem_ctrl.dram.perBankRdBursts::2            0                       # Per bank write bursts (Count)
system.far_mem_ctrl.dram.perBankRdBursts::3            0                       # Per bank write bursts (Count)
system.far_mem_ctrl.dram.perBankRdBursts::4            0                       # Per bank write bursts (Count)
system.far_mem_ctrl.dram.perBankRdBursts::5            0                       # Per bank write bursts (Count)
system.far_mem_ctrl.dram.perBankRdBursts::6            0                       # Per bank write bursts (Count)
system.far_mem_ctrl.dram.perBankRdBursts::7            0                       # Per bank write bursts (Count)
system.far_mem_ctrl.dram.perBankRdBursts::8            0                       # Per bank write bursts (Count)
system.far_mem_ctrl.dram.perBankRdBursts::9            0                       # Per bank write bursts (Count)
system.far_mem_ctrl.dram.perBankRdBursts::10            0                       # Per bank write bursts (Count)
system.far_mem_ctrl.dram.perBankRdBursts::11            0                       # Per bank write bursts (Count)
system.far_mem_ctrl.dram.perBankRdBursts::12            0                       # Per bank write bursts (Count)
system.far_mem_ctrl.dram.perBankRdBursts::13            0                       # Per bank write bursts (Count)
system.far_mem_ctrl.dram.perBankRdBursts::14            0                       # Per bank write bursts (Count)
system.far_mem_ctrl.dram.perBankRdBursts::15            0                       # Per bank write bursts (Count)
system.far_mem_ctrl.dram.perBankRdBursts::16            0                       # Per bank write bursts (Count)
system.far_mem_ctrl.dram.perBankRdBursts::17            0                       # Per bank write bursts (Count)
system.far_mem_ctrl.dram.perBankRdBursts::18            0                       # Per bank write bursts (Count)
system.far_mem_ctrl.dram.perBankRdBursts::19            0                       # Per bank write bursts (Count)
system.far_mem_ctrl.dram.perBankRdBursts::20            0                       # Per bank write bursts (Count)
system.far_mem_ctrl.dram.perBankRdBursts::21            0                       # Per bank write bursts (Count)
system.far_mem_ctrl.dram.perBankRdBursts::22            0                       # Per bank write bursts (Count)
system.far_mem_ctrl.dram.perBankRdBursts::23            0                       # Per bank write bursts (Count)
system.far_mem_ctrl.dram.perBankRdBursts::24            0                       # Per bank write bursts (Count)
system.far_mem_ctrl.dram.perBankRdBursts::25            0                       # Per bank write bursts (Count)
system.far_mem_ctrl.dram.perBankRdBursts::26            0                       # Per bank write bursts (Count)
system.far_mem_ctrl.dram.perBankRdBursts::27            0                       # Per bank write bursts (Count)
system.far_mem_ctrl.dram.perBankRdBursts::28            0                       # Per bank write bursts (Count)
system.far_mem_ctrl.dram.perBankRdBursts::29            0                       # Per bank write bursts (Count)
system.far_mem_ctrl.dram.perBankRdBursts::30            0                       # Per bank write bursts (Count)
system.far_mem_ctrl.dram.perBankRdBursts::31            0                       # Per bank write bursts (Count)
system.far_mem_ctrl.dram.perBankWrBursts::0            0                       # Per bank write bursts (Count)
system.far_mem_ctrl.dram.perBankWrBursts::1            0                       # Per bank write bursts (Count)
system.far_mem_ctrl.dram.perBankWrBursts::2            0                       # Per bank write bursts (Count)
system.far_mem_ctrl.dram.perBankWrBursts::3            0                       # Per bank write bursts (Count)
system.far_mem_ctrl.dram.perBankWrBursts::4            0                       # Per bank write bursts (Count)
system.far_mem_ctrl.dram.perBankWrBursts::5            0                       # Per bank write bursts (Count)
system.far_mem_ctrl.dram.perBankWrBursts::6            0                       # Per bank write bursts (Count)
system.far_mem_ctrl.dram.perBankWrBursts::7            0                       # Per bank write bursts (Count)
system.far_mem_ctrl.dram.perBankWrBursts::8            0                       # Per bank write bursts (Count)
system.far_mem_ctrl.dram.perBankWrBursts::9            0                       # Per bank write bursts (Count)
system.far_mem_ctrl.dram.perBankWrBursts::10            0                       # Per bank write bursts (Count)
system.far_mem_ctrl.dram.perBankWrBursts::11            0                       # Per bank write bursts (Count)
system.far_mem_ctrl.dram.perBankWrBursts::12            0                       # Per bank write bursts (Count)
system.far_mem_ctrl.dram.perBankWrBursts::13            0                       # Per bank write bursts (Count)
system.far_mem_ctrl.dram.perBankWrBursts::14            0                       # Per bank write bursts (Count)
system.far_mem_ctrl.dram.perBankWrBursts::15            0                       # Per bank write bursts (Count)
system.far_mem_ctrl.dram.perBankWrBursts::16            0                       # Per bank write bursts (Count)
system.far_mem_ctrl.dram.perBankWrBursts::17            0                       # Per bank write bursts (Count)
system.far_mem_ctrl.dram.perBankWrBursts::18            0                       # Per bank write bursts (Count)
system.far_mem_ctrl.dram.perBankWrBursts::19            0                       # Per bank write bursts (Count)
system.far_mem_ctrl.dram.perBankWrBursts::20            0                       # Per bank write bursts (Count)
system.far_mem_ctrl.dram.perBankWrBursts::21            0                       # Per bank write bursts (Count)
system.far_mem_ctrl.dram.perBankWrBursts::22            0                       # Per bank write bursts (Count)
system.far_mem_ctrl.dram.perBankWrBursts::23            0                       # Per bank write bursts (Count)
system.far_mem_ctrl.dram.perBankWrBursts::24            0                       # Per bank write bursts (Count)
system.far_mem_ctrl.dram.perBankWrBursts::25            0                       # Per bank write bursts (Count)
system.far_mem_ctrl.dram.perBankWrBursts::26            0                       # Per bank write bursts (Count)
system.far_mem_ctrl.dram.perBankWrBursts::27            0                       # Per bank write bursts (Count)
system.far_mem_ctrl.dram.perBankWrBursts::28            0                       # Per bank write bursts (Count)
system.far_mem_ctrl.dram.perBankWrBursts::29            0                       # Per bank write bursts (Count)
system.far_mem_ctrl.dram.perBankWrBursts::30            0                       # Per bank write bursts (Count)
system.far_mem_ctrl.dram.perBankWrBursts::31            0                       # Per bank write bursts (Count)
system.far_mem_ctrl.dram.totQLat                    0                       # Total ticks spent queuing (Tick)
system.far_mem_ctrl.dram.totBusLat                  0                       # Total ticks spent in databus transfers (Tick)
system.far_mem_ctrl.dram.totMemAccLat               0                       # Total ticks spent from burst creation until serviced by the DRAM (Tick)
system.far_mem_ctrl.dram.avgQLat                  nan                       # Average queueing delay per DRAM burst ((Tick/Count))
system.far_mem_ctrl.dram.avgBusLat                nan                       # Average bus latency per DRAM burst ((Tick/Count))
system.far_mem_ctrl.dram.avgMemAccLat             nan                       # Average memory access latency per DRAM burst ((Tick/Count))
system.far_mem_ctrl.dram.readRowHits                0                       # Number of row buffer hits during reads (Count)
system.far_mem_ctrl.dram.writeRowHits               0                       # Number of row buffer hits during writes (Count)
system.far_mem_ctrl.dram.readRowHitRate           nan                       # Row buffer hit rate for reads (Ratio)
system.far_mem_ctrl.dram.writeRowHitRate          nan                       # Row buffer hit rate for writes (Ratio)
system.far_mem_ctrl.dram.bytesRead                  0                       # Total bytes read (Byte)
system.far_mem_ctrl.dram.bytesWritten               0                       # Total bytes written (Byte)
system.far_mem_ctrl.dram.avgRdBW                    0                       # Average DRAM read bandwidth in MiBytes/s ((Byte/Second))
system.far_mem_ctrl.dram.avgWrBW                    0                       # Average DRAM write bandwidth in MiBytes/s ((Byte/Second))
system.far_mem_ctrl.dram.peakBW              19207.00                       # Theoretical peak bandwidth in MiByte/s ((Byte/Second))
system.far_mem_ctrl.dram.busUtil                 0.00                       # Data bus utilization in percentage (Ratio)
system.far_mem_ctrl.dram.busUtilRead             0.00                       # Data bus utilization in percentage for reads (Ratio)
system.far_mem_ctrl.dram.busUtilWrite            0.00                       # Data bus utilization in percentage for writes (Ratio)
system.far_mem_ctrl.dram.pageHitRate              nan                       # Row buffer hit rate, read and write combined (Ratio)
system.far_mem_ctrl.dram.power_state.pwrStateResidencyTicks::UNDEFINED  20000000000                       # Cumulative time (in ticks) in various power states (Tick)
system.far_mem_ctrl.dram.rank0.actEnergy            0                       # Energy for activate commands per rank (pJ) (Joule)
system.far_mem_ctrl.dram.rank0.preEnergy            0                       # Energy for precharge commands per rank (pJ) (Joule)
system.far_mem_ctrl.dram.rank0.readEnergy            0                       # Energy for read commands per rank (pJ) (Joule)
system.far_mem_ctrl.dram.rank0.writeEnergy            0                       # Energy for write commands per rank (pJ) (Joule)
system.far_mem_ctrl.dram.rank0.refreshEnergy 3557649746.649648                       # Energy for refresh commands per rank (pJ) (Joule)
system.far_mem_ctrl.dram.rank0.actBackEnergy 734236363.929612                       # Energy for active background per rank (pJ) (Joule)
system.far_mem_ctrl.dram.rank0.preBackEnergy 12491841072.077028                       # Energy for precharge background per rank (pJ) (Joule)
system.far_mem_ctrl.dram.rank0.actPowerDownEnergy            0                       # Energy for active power-down per rank (pJ) (Joule)
system.far_mem_ctrl.dram.rank0.prePowerDownEnergy            0                       # Energy for precharge power-down per rank (pJ) (Joule)
system.far_mem_ctrl.dram.rank0.selfRefreshEnergy            0                       # Energy for self refresh per rank (pJ) (Joule)
system.far_mem_ctrl.dram.rank0.totalEnergy 16783727182.655682                       # Total energy per rank (pJ) (Joule)
system.far_mem_ctrl.dram.rank0.averagePower   839.186359                       # Core power per rank (mW) (Watt)
system.far_mem_ctrl.dram.rank0.totalIdleTime            0                       # Total Idle time Per DRAM Rank (Tick)
system.far_mem_ctrl.dram.rank0.pwrStateTime::IDLE  19101200000                       # Time in different power states (Tick)
system.far_mem_ctrl.dram.rank0.pwrStateTime::REF    898800000                       # Time in different power states (Tick)
system.far_mem_ctrl.dram.rank0.pwrStateTime::SREF            0                       # Time in different power states (Tick)
system.far_mem_ctrl.dram.rank0.pwrStateTime::PRE_PDN            0                       # Time in different power states (Tick)
system.far_mem_ctrl.dram.rank0.pwrStateTime::ACT            0                       # Time in different power states (Tick)
system.far_mem_ctrl.dram.rank0.pwrStateTime::ACT_PDN            0                       # Time in different power states (Tick)
system.far_mem_ctrl.dram.rank1.actEnergy            0                       # Energy for activate commands per rank (pJ) (Joule)
system.far_mem_ctrl.dram.rank1.preEnergy            0                       # Energy for precharge commands per rank (pJ) (Joule)
system.far_mem_ctrl.dram.rank1.readEnergy            0                       # Energy for read commands per rank (pJ) (Joule)
system.far_mem_ctrl.dram.rank1.writeEnergy            0                       # Energy for write commands per rank (pJ) (Joule)
system.far_mem_ctrl.dram.rank1.refreshEnergy 3557649746.649648                       # Energy for refresh commands per rank (pJ) (Joule)
system.far_mem_ctrl.dram.rank1.actBackEnergy 734236363.929612                       # Energy for active background per rank (pJ) (Joule)
system.far_mem_ctrl.dram.rank1.preBackEnergy 12491841072.077028                       # Energy for precharge background per rank (pJ) (Joule)
system.far_mem_ctrl.dram.rank1.actPowerDownEnergy            0                       # Energy for active power-down per rank (pJ) (Joule)
system.far_mem_ctrl.dram.rank1.prePowerDownEnergy            0                       # Energy for precharge power-down per rank (pJ) (Joule)
system.far_mem_ctrl.dram.rank1.selfRefreshEnergy            0                       # Energy for self refresh per rank (pJ) (Joule)
system.far_mem_ctrl.dram.rank1.totalEnergy 16783727182.655682                       # Total energy per rank (pJ) (Joule)
system.far_mem_ctrl.dram.rank1.averagePower   839.186359                       # Core power per rank (mW) (Watt)
system.far_mem_ctrl.dram.rank1.totalIdleTime            0                       # Total Idle time Per DRAM Rank (Tick)
system.far_mem_ctrl.dram.rank1.pwrStateTime::IDLE  19101200000                       # Time in different power states (Tick)
system.far_mem_ctrl.dram.rank1.pwrStateTime::REF    898800000                       # Time in different power states (Tick)
system.far_mem_ctrl.dram.rank1.pwrStateTime::SREF            0                       # Time in different power states (Tick)
system.far_mem_ctrl.dram.rank1.pwrStateTime::PRE_PDN            0                       # Time in different power states (Tick)
system.far_mem_ctrl.dram.rank1.pwrStateTime::ACT            0                       # Time in different power states (Tick)
system.far_mem_ctrl.dram.rank1.pwrStateTime::ACT_PDN            0                       # Time in different power states (Tick)
system.far_mem_ctrl.power_state.pwrStateResidencyTicks::UNDEFINED  20000000000                       # Cumulative time (in ticks) in various power states (Tick)
system.generator.numSuppressed                      0                       # Number of suppressed packets to non-memory space (Count)
system.generator.numPackets                   7762880                       # Number of packets generated (Count)
system.generator.numRetries                   7580032                       # Number of retries (Count)
system.generator.retryTicks               18820365431                       # Time spent waiting due to back-pressure (Tick)
system.generator.bytesRead                  329596480                       # Number of bytes read (Byte)
system.generator.bytesWritten               167212224                       # Number of bytes written (Byte)
system.generator.totalReadLatency        3204130405574                       # Total latency of read requests (Tick)
system.generator.totalWriteLatency        58861685430                       # Total latency of write requests (Tick)
system.generator.totalReads                   5149945                       # Total num of reads (Count)
system.generator.totalWrites                  2612691                       # Total num of writes (Count)
system.generator.avgReadLatency          622167.888312                       # Avg latency of read requests ((Tick/Count))
system.generator.avgWriteLatency         22529.141575                       # Avg latency of write requests ((Tick/Count))
system.generator.readBW                   16479824000                       # Read bandwidth ((Byte/Second))
system.generator.writeBW                   8360611200                       # Write bandwidth ((Byte/Second))
system.generator.power_state.pwrStateResidencyTicks::UNDEFINED  20000000000                       # Cumulative time (in ticks) in various power states (Tick)
system.loc_mem_ctrl.avgPriority_writebacks::samples  15525374.00                       # Average QoS priority value for accepted requests (Count)
system.loc_mem_ctrl.priorityMinLatency   0.000000025000                       # per QoS priority minimum request to response latency (Second)
system.loc_mem_ctrl.priorityMaxLatency   0.000006029000                       # per QoS priority maximum request to response latency (Second)
system.loc_mem_ctrl.numReadWriteTurnArounds            0                       # Number of turnarounds from READ to WRITE (Count)
system.loc_mem_ctrl.numWriteReadTurnArounds            0                       # Number of turnarounds from WRITE to READ (Count)
system.loc_mem_ctrl.numStayReadState         15631429                       # Number of times bus staying in READ state (Count)
system.loc_mem_ctrl.numStayWriteState               0                       # Number of times bus staying in WRITE state (Count)
system.loc_mem_ctrl.readReqs                  5150025                       # Number of read requests accepted (Count)
system.loc_mem_ctrl.writeReqs                 2612668                       # Number of write requests accepted (Count)
system.loc_mem_ctrl.readBursts               10300050                       # Number of controller read bursts, including those serviced by the write queue (Count)
system.loc_mem_ctrl.writeBursts               5225336                       # Number of controller write bursts, including those merged in the write queue (Count)
system.loc_mem_ctrl.servicedByWrQ                  10                       # Number of controller read bursts serviced by the write queue (Count)
system.loc_mem_ctrl.mergedWrBursts                  2                       # Number of controller write bursts merged with an existing one (Count)
system.loc_mem_ctrl.avgRdQLen                   87.69                       # Average read queue length when enqueuing ((Count/Tick))
system.loc_mem_ctrl.avgWrQLen                  103.10                       # Average write queue length when enqueuing ((Count/Tick))
system.loc_mem_ctrl.numRdRetry               11010436                       # Number of times read queue was full causing retry (Count)
system.loc_mem_ctrl.numWrRetry               11002497                       # Number of times write queue was full causing retry (Count)
system.loc_mem_ctrl.readPktSize::0                  0                       # Read request sizes (log2) (Count)
system.loc_mem_ctrl.readPktSize::1                  0                       # Read request sizes (log2) (Count)
system.loc_mem_ctrl.readPktSize::2                  0                       # Read request sizes (log2) (Count)
system.loc_mem_ctrl.readPktSize::3                  0                       # Read request sizes (log2) (Count)
system.loc_mem_ctrl.readPktSize::4                  0                       # Read request sizes (log2) (Count)
system.loc_mem_ctrl.readPktSize::5           10300050                       # Read request sizes (log2) (Count)
system.loc_mem_ctrl.readPktSize::6                  0                       # Read request sizes (log2) (Count)
system.loc_mem_ctrl.writePktSize::0                 0                       # Write request sizes (log2) (Count)
system.loc_mem_ctrl.writePktSize::1                 0                       # Write request sizes (log2) (Count)
system.loc_mem_ctrl.writePktSize::2                 0                       # Write request sizes (log2) (Count)
system.loc_mem_ctrl.writePktSize::3                 0                       # Write request sizes (log2) (Count)
system.loc_mem_ctrl.writePktSize::4                 0                       # Write request sizes (log2) (Count)
system.loc_mem_ctrl.writePktSize::5           5225336                       # Write request sizes (log2) (Count)
system.loc_mem_ctrl.writePktSize::6                 0                       # Write request sizes (log2) (Count)
system.loc_mem_ctrl.rdQLenPdf::0                   21                       # What read queue length does an incoming req see (Count)
system.loc_mem_ctrl.rdQLenPdf::1                   38                       # What read queue length does an incoming req see (Count)
system.loc_mem_ctrl.rdQLenPdf::2                  134                       # What read queue length does an incoming req see (Count)
system.loc_mem_ctrl.rdQLenPdf::3                  228                       # What read queue length does an incoming req see (Count)
system.loc_mem_ctrl.rdQLenPdf::4                  442                       # What read queue length does an incoming req see (Count)
system.loc_mem_ctrl.rdQLenPdf::5                  701                       # What read queue length does an incoming req see (Count)
system.loc_mem_ctrl.rdQLenPdf::6                 1130                       # What read queue length does an incoming req see (Count)
system.loc_mem_ctrl.rdQLenPdf::7                 1626                       # What read queue length does an incoming req see (Count)
system.loc_mem_ctrl.rdQLenPdf::8                 2376                       # What read queue length does an incoming req see (Count)
system.loc_mem_ctrl.rdQLenPdf::9                 3128                       # What read queue length does an incoming req see (Count)
system.loc_mem_ctrl.rdQLenPdf::10                4098                       # What read queue length does an incoming req see (Count)
system.loc_mem_ctrl.rdQLenPdf::11                5191                       # What read queue length does an incoming req see (Count)
system.loc_mem_ctrl.rdQLenPdf::12                6522                       # What read queue length does an incoming req see (Count)
system.loc_mem_ctrl.rdQLenPdf::13                7931                       # What read queue length does an incoming req see (Count)
system.loc_mem_ctrl.rdQLenPdf::14                9594                       # What read queue length does an incoming req see (Count)
system.loc_mem_ctrl.rdQLenPdf::15               11388                       # What read queue length does an incoming req see (Count)
system.loc_mem_ctrl.rdQLenPdf::16               12903                       # What read queue length does an incoming req see (Count)
system.loc_mem_ctrl.rdQLenPdf::17               14457                       # What read queue length does an incoming req see (Count)
system.loc_mem_ctrl.rdQLenPdf::18               16252                       # What read queue length does an incoming req see (Count)
system.loc_mem_ctrl.rdQLenPdf::19               17603                       # What read queue length does an incoming req see (Count)
system.loc_mem_ctrl.rdQLenPdf::20               18903                       # What read queue length does an incoming req see (Count)
system.loc_mem_ctrl.rdQLenPdf::21               20038                       # What read queue length does an incoming req see (Count)
system.loc_mem_ctrl.rdQLenPdf::22               21312                       # What read queue length does an incoming req see (Count)
system.loc_mem_ctrl.rdQLenPdf::23               21964                       # What read queue length does an incoming req see (Count)
system.loc_mem_ctrl.rdQLenPdf::24               22959                       # What read queue length does an incoming req see (Count)
system.loc_mem_ctrl.rdQLenPdf::25               23485                       # What read queue length does an incoming req see (Count)
system.loc_mem_ctrl.rdQLenPdf::26               24220                       # What read queue length does an incoming req see (Count)
system.loc_mem_ctrl.rdQLenPdf::27               24778                       # What read queue length does an incoming req see (Count)
system.loc_mem_ctrl.rdQLenPdf::28               25359                       # What read queue length does an incoming req see (Count)
system.loc_mem_ctrl.rdQLenPdf::29               25478                       # What read queue length does an incoming req see (Count)
system.loc_mem_ctrl.rdQLenPdf::30               25916                       # What read queue length does an incoming req see (Count)
system.loc_mem_ctrl.rdQLenPdf::31               25796                       # What read queue length does an incoming req see (Count)
system.loc_mem_ctrl.rdQLenPdf::32               26030                       # What read queue length does an incoming req see (Count)
system.loc_mem_ctrl.rdQLenPdf::33               25730                       # What read queue length does an incoming req see (Count)
system.loc_mem_ctrl.rdQLenPdf::34               25767                       # What read queue length does an incoming req see (Count)
system.loc_mem_ctrl.rdQLenPdf::35               25756                       # What read queue length does an incoming req see (Count)
system.loc_mem_ctrl.rdQLenPdf::36               26061                       # What read queue length does an incoming req see (Count)
system.loc_mem_ctrl.rdQLenPdf::37               25986                       # What read queue length does an incoming req see (Count)
system.loc_mem_ctrl.rdQLenPdf::38               26075                       # What read queue length does an incoming req see (Count)
system.loc_mem_ctrl.rdQLenPdf::39               25482                       # What read queue length does an incoming req see (Count)
system.loc_mem_ctrl.rdQLenPdf::40               27853                       # What read queue length does an incoming req see (Count)
system.loc_mem_ctrl.rdQLenPdf::41               28686                       # What read queue length does an incoming req see (Count)
system.loc_mem_ctrl.rdQLenPdf::42               28394                       # What read queue length does an incoming req see (Count)
system.loc_mem_ctrl.rdQLenPdf::43               28353                       # What read queue length does an incoming req see (Count)
system.loc_mem_ctrl.rdQLenPdf::44               28935                       # What read queue length does an incoming req see (Count)
system.loc_mem_ctrl.rdQLenPdf::45               28583                       # What read queue length does an incoming req see (Count)
system.loc_mem_ctrl.rdQLenPdf::46               28715                       # What read queue length does an incoming req see (Count)
system.loc_mem_ctrl.rdQLenPdf::47               29134                       # What read queue length does an incoming req see (Count)
system.loc_mem_ctrl.rdQLenPdf::48               29236                       # What read queue length does an incoming req see (Count)
system.loc_mem_ctrl.rdQLenPdf::49               29599                       # What read queue length does an incoming req see (Count)
system.loc_mem_ctrl.rdQLenPdf::50               30313                       # What read queue length does an incoming req see (Count)
system.loc_mem_ctrl.rdQLenPdf::51               30428                       # What read queue length does an incoming req see (Count)
system.loc_mem_ctrl.rdQLenPdf::52               30584                       # What read queue length does an incoming req see (Count)
system.loc_mem_ctrl.rdQLenPdf::53               31031                       # What read queue length does an incoming req see (Count)
system.loc_mem_ctrl.rdQLenPdf::54               31945                       # What read queue length does an incoming req see (Count)
system.loc_mem_ctrl.rdQLenPdf::55               32769                       # What read queue length does an incoming req see (Count)
system.loc_mem_ctrl.rdQLenPdf::56               34326                       # What read queue length does an incoming req see (Count)
system.loc_mem_ctrl.rdQLenPdf::57               36000                       # What read queue length does an incoming req see (Count)
system.loc_mem_ctrl.rdQLenPdf::58               37609                       # What read queue length does an incoming req see (Count)
system.loc_mem_ctrl.rdQLenPdf::59               39602                       # What read queue length does an incoming req see (Count)
system.loc_mem_ctrl.rdQLenPdf::60               41847                       # What read queue length does an incoming req see (Count)
system.loc_mem_ctrl.rdQLenPdf::61               43982                       # What read queue length does an incoming req see (Count)
system.loc_mem_ctrl.rdQLenPdf::62               57064                       # What read queue length does an incoming req see (Count)
system.loc_mem_ctrl.rdQLenPdf::63               64767                       # What read queue length does an incoming req see (Count)
system.loc_mem_ctrl.rdQLenPdf::64               67451                       # What read queue length does an incoming req see (Count)
system.loc_mem_ctrl.rdQLenPdf::65               75835                       # What read queue length does an incoming req see (Count)
system.loc_mem_ctrl.rdQLenPdf::66               77726                       # What read queue length does an incoming req see (Count)
system.loc_mem_ctrl.rdQLenPdf::67               88140                       # What read queue length does an incoming req see (Count)
system.loc_mem_ctrl.rdQLenPdf::68               97710                       # What read queue length does an incoming req see (Count)
system.loc_mem_ctrl.rdQLenPdf::69              108726                       # What read queue length does an incoming req see (Count)
system.loc_mem_ctrl.rdQLenPdf::70              120772                       # What read queue length does an incoming req see (Count)
system.loc_mem_ctrl.rdQLenPdf::71              132039                       # What read queue length does an incoming req see (Count)
system.loc_mem_ctrl.rdQLenPdf::72              144690                       # What read queue length does an incoming req see (Count)
system.loc_mem_ctrl.rdQLenPdf::73              156491                       # What read queue length does an incoming req see (Count)
system.loc_mem_ctrl.rdQLenPdf::74              169740                       # What read queue length does an incoming req see (Count)
system.loc_mem_ctrl.rdQLenPdf::75              179704                       # What read queue length does an incoming req see (Count)
system.loc_mem_ctrl.rdQLenPdf::76              192425                       # What read queue length does an incoming req see (Count)
system.loc_mem_ctrl.rdQLenPdf::77              201664                       # What read queue length does an incoming req see (Count)
system.loc_mem_ctrl.rdQLenPdf::78              212549                       # What read queue length does an incoming req see (Count)
system.loc_mem_ctrl.rdQLenPdf::79              220844                       # What read queue length does an incoming req see (Count)
system.loc_mem_ctrl.rdQLenPdf::80              230017                       # What read queue length does an incoming req see (Count)
system.loc_mem_ctrl.rdQLenPdf::81              236660                       # What read queue length does an incoming req see (Count)
system.loc_mem_ctrl.rdQLenPdf::82              244305                       # What read queue length does an incoming req see (Count)
system.loc_mem_ctrl.rdQLenPdf::83              249033                       # What read queue length does an incoming req see (Count)
system.loc_mem_ctrl.rdQLenPdf::84              254646                       # What read queue length does an incoming req see (Count)
system.loc_mem_ctrl.rdQLenPdf::85              258429                       # What read queue length does an incoming req see (Count)
system.loc_mem_ctrl.rdQLenPdf::86              261844                       # What read queue length does an incoming req see (Count)
system.loc_mem_ctrl.rdQLenPdf::87              264074                       # What read queue length does an incoming req see (Count)
system.loc_mem_ctrl.rdQLenPdf::88              266000                       # What read queue length does an incoming req see (Count)
system.loc_mem_ctrl.rdQLenPdf::89              267614                       # What read queue length does an incoming req see (Count)
system.loc_mem_ctrl.rdQLenPdf::90              269587                       # What read queue length does an incoming req see (Count)
system.loc_mem_ctrl.rdQLenPdf::91              270624                       # What read queue length does an incoming req see (Count)
system.loc_mem_ctrl.rdQLenPdf::92              271060                       # What read queue length does an incoming req see (Count)
system.loc_mem_ctrl.rdQLenPdf::93              271584                       # What read queue length does an incoming req see (Count)
system.loc_mem_ctrl.rdQLenPdf::94              271664                       # What read queue length does an incoming req see (Count)
system.loc_mem_ctrl.rdQLenPdf::95              271453                       # What read queue length does an incoming req see (Count)
system.loc_mem_ctrl.rdQLenPdf::96              269240                       # What read queue length does an incoming req see (Count)
system.loc_mem_ctrl.rdQLenPdf::97              268268                       # What read queue length does an incoming req see (Count)
system.loc_mem_ctrl.rdQLenPdf::98              266345                       # What read queue length does an incoming req see (Count)
system.loc_mem_ctrl.rdQLenPdf::99              263965                       # What read queue length does an incoming req see (Count)
system.loc_mem_ctrl.rdQLenPdf::100             262350                       # What read queue length does an incoming req see (Count)
system.loc_mem_ctrl.rdQLenPdf::101             259826                       # What read queue length does an incoming req see (Count)
system.loc_mem_ctrl.rdQLenPdf::102             251855                       # What read queue length does an incoming req see (Count)
system.loc_mem_ctrl.rdQLenPdf::103             229825                       # What read queue length does an incoming req see (Count)
system.loc_mem_ctrl.rdQLenPdf::104             164069                       # What read queue length does an incoming req see (Count)
system.loc_mem_ctrl.rdQLenPdf::105              72722                       # What read queue length does an incoming req see (Count)
system.loc_mem_ctrl.rdQLenPdf::106              18152                       # What read queue length does an incoming req see (Count)
system.loc_mem_ctrl.rdQLenPdf::107              12923                       # What read queue length does an incoming req see (Count)
system.loc_mem_ctrl.rdQLenPdf::108              10171                       # What read queue length does an incoming req see (Count)
system.loc_mem_ctrl.rdQLenPdf::109               9389                       # What read queue length does an incoming req see (Count)
system.loc_mem_ctrl.rdQLenPdf::110               8536                       # What read queue length does an incoming req see (Count)
system.loc_mem_ctrl.rdQLenPdf::111               8158                       # What read queue length does an incoming req see (Count)
system.loc_mem_ctrl.rdQLenPdf::112               7620                       # What read queue length does an incoming req see (Count)
system.loc_mem_ctrl.rdQLenPdf::113               7451                       # What read queue length does an incoming req see (Count)
system.loc_mem_ctrl.rdQLenPdf::114               7156                       # What read queue length does an incoming req see (Count)
system.loc_mem_ctrl.rdQLenPdf::115               6942                       # What read queue length does an incoming req see (Count)
system.loc_mem_ctrl.rdQLenPdf::116               6395                       # What read queue length does an incoming req see (Count)
system.loc_mem_ctrl.rdQLenPdf::117               6261                       # What read queue length does an incoming req see (Count)
system.loc_mem_ctrl.rdQLenPdf::118               5957                       # What read queue length does an incoming req see (Count)
system.loc_mem_ctrl.rdQLenPdf::119               5730                       # What read queue length does an incoming req see (Count)
system.loc_mem_ctrl.rdQLenPdf::120               5211                       # What read queue length does an incoming req see (Count)
system.loc_mem_ctrl.rdQLenPdf::121               5025                       # What read queue length does an incoming req see (Count)
system.loc_mem_ctrl.rdQLenPdf::122               4550                       # What read queue length does an incoming req see (Count)
system.loc_mem_ctrl.rdQLenPdf::123               4397                       # What read queue length does an incoming req see (Count)
system.loc_mem_ctrl.rdQLenPdf::124               4052                       # What read queue length does an incoming req see (Count)
system.loc_mem_ctrl.rdQLenPdf::125               3808                       # What read queue length does an incoming req see (Count)
system.loc_mem_ctrl.rdQLenPdf::126               3280                       # What read queue length does an incoming req see (Count)
system.loc_mem_ctrl.rdQLenPdf::127               2698                       # What read queue length does an incoming req see (Count)
system.loc_mem_ctrl.wrQLenPdf::0                 3678                       # What write queue length does an incoming req see (Count)
system.loc_mem_ctrl.wrQLenPdf::1                 4741                       # What write queue length does an incoming req see (Count)
system.loc_mem_ctrl.wrQLenPdf::2                 5223                       # What write queue length does an incoming req see (Count)
system.loc_mem_ctrl.wrQLenPdf::3                 5858                       # What write queue length does an incoming req see (Count)
system.loc_mem_ctrl.wrQLenPdf::4                 6338                       # What write queue length does an incoming req see (Count)
system.loc_mem_ctrl.wrQLenPdf::5                 6756                       # What write queue length does an incoming req see (Count)
system.loc_mem_ctrl.wrQLenPdf::6                 7118                       # What write queue length does an incoming req see (Count)
system.loc_mem_ctrl.wrQLenPdf::7                 7356                       # What write queue length does an incoming req see (Count)
system.loc_mem_ctrl.wrQLenPdf::8                 7642                       # What write queue length does an incoming req see (Count)
system.loc_mem_ctrl.wrQLenPdf::9                 7604                       # What write queue length does an incoming req see (Count)
system.loc_mem_ctrl.wrQLenPdf::10                7852                       # What write queue length does an incoming req see (Count)
system.loc_mem_ctrl.wrQLenPdf::11                7852                       # What write queue length does an incoming req see (Count)
system.loc_mem_ctrl.wrQLenPdf::12                8103                       # What write queue length does an incoming req see (Count)
system.loc_mem_ctrl.wrQLenPdf::13                8007                       # What write queue length does an incoming req see (Count)
system.loc_mem_ctrl.wrQLenPdf::14                8194                       # What write queue length does an incoming req see (Count)
system.loc_mem_ctrl.wrQLenPdf::15                8009                       # What write queue length does an incoming req see (Count)
system.loc_mem_ctrl.wrQLenPdf::16                8146                       # What write queue length does an incoming req see (Count)
system.loc_mem_ctrl.wrQLenPdf::17                7883                       # What write queue length does an incoming req see (Count)
system.loc_mem_ctrl.wrQLenPdf::18                7975                       # What write queue length does an incoming req see (Count)
system.loc_mem_ctrl.wrQLenPdf::19                7711                       # What write queue length does an incoming req see (Count)
system.loc_mem_ctrl.wrQLenPdf::20                7767                       # What write queue length does an incoming req see (Count)
system.loc_mem_ctrl.wrQLenPdf::21                7584                       # What write queue length does an incoming req see (Count)
system.loc_mem_ctrl.wrQLenPdf::22                7671                       # What write queue length does an incoming req see (Count)
system.loc_mem_ctrl.wrQLenPdf::23                7493                       # What write queue length does an incoming req see (Count)
system.loc_mem_ctrl.wrQLenPdf::24                7515                       # What write queue length does an incoming req see (Count)
system.loc_mem_ctrl.wrQLenPdf::25                7336                       # What write queue length does an incoming req see (Count)
system.loc_mem_ctrl.wrQLenPdf::26                7344                       # What write queue length does an incoming req see (Count)
system.loc_mem_ctrl.wrQLenPdf::27                7164                       # What write queue length does an incoming req see (Count)
system.loc_mem_ctrl.wrQLenPdf::28                7177                       # What write queue length does an incoming req see (Count)
system.loc_mem_ctrl.wrQLenPdf::29                7015                       # What write queue length does an incoming req see (Count)
system.loc_mem_ctrl.wrQLenPdf::30                7054                       # What write queue length does an incoming req see (Count)
system.loc_mem_ctrl.wrQLenPdf::31                6957                       # What write queue length does an incoming req see (Count)
system.loc_mem_ctrl.wrQLenPdf::32                6941                       # What write queue length does an incoming req see (Count)
system.loc_mem_ctrl.wrQLenPdf::33                6881                       # What write queue length does an incoming req see (Count)
system.loc_mem_ctrl.wrQLenPdf::34                6858                       # What write queue length does an incoming req see (Count)
system.loc_mem_ctrl.wrQLenPdf::35                6800                       # What write queue length does an incoming req see (Count)
system.loc_mem_ctrl.wrQLenPdf::36                6779                       # What write queue length does an incoming req see (Count)
system.loc_mem_ctrl.wrQLenPdf::37                6689                       # What write queue length does an incoming req see (Count)
system.loc_mem_ctrl.wrQLenPdf::38                6684                       # What write queue length does an incoming req see (Count)
system.loc_mem_ctrl.wrQLenPdf::39                6648                       # What write queue length does an incoming req see (Count)
system.loc_mem_ctrl.wrQLenPdf::40                6630                       # What write queue length does an incoming req see (Count)
system.loc_mem_ctrl.wrQLenPdf::41                6630                       # What write queue length does an incoming req see (Count)
system.loc_mem_ctrl.wrQLenPdf::42                6636                       # What write queue length does an incoming req see (Count)
system.loc_mem_ctrl.wrQLenPdf::43                6612                       # What write queue length does an incoming req see (Count)
system.loc_mem_ctrl.wrQLenPdf::44                6580                       # What write queue length does an incoming req see (Count)
system.loc_mem_ctrl.wrQLenPdf::45                6566                       # What write queue length does an incoming req see (Count)
system.loc_mem_ctrl.wrQLenPdf::46                6542                       # What write queue length does an incoming req see (Count)
system.loc_mem_ctrl.wrQLenPdf::47                6484                       # What write queue length does an incoming req see (Count)
system.loc_mem_ctrl.wrQLenPdf::48                6484                       # What write queue length does an incoming req see (Count)
system.loc_mem_ctrl.wrQLenPdf::49                6511                       # What write queue length does an incoming req see (Count)
system.loc_mem_ctrl.wrQLenPdf::50                6488                       # What write queue length does an incoming req see (Count)
system.loc_mem_ctrl.wrQLenPdf::51                6453                       # What write queue length does an incoming req see (Count)
system.loc_mem_ctrl.wrQLenPdf::52                6440                       # What write queue length does an incoming req see (Count)
system.loc_mem_ctrl.wrQLenPdf::53                6419                       # What write queue length does an incoming req see (Count)
system.loc_mem_ctrl.wrQLenPdf::54                6408                       # What write queue length does an incoming req see (Count)
system.loc_mem_ctrl.wrQLenPdf::55                6397                       # What write queue length does an incoming req see (Count)
system.loc_mem_ctrl.wrQLenPdf::56                6414                       # What write queue length does an incoming req see (Count)
system.loc_mem_ctrl.wrQLenPdf::57                6440                       # What write queue length does an incoming req see (Count)
system.loc_mem_ctrl.wrQLenPdf::58                6440                       # What write queue length does an incoming req see (Count)
system.loc_mem_ctrl.wrQLenPdf::59                6445                       # What write queue length does an incoming req see (Count)
system.loc_mem_ctrl.wrQLenPdf::60                6459                       # What write queue length does an incoming req see (Count)
system.loc_mem_ctrl.wrQLenPdf::61                6505                       # What write queue length does an incoming req see (Count)
system.loc_mem_ctrl.wrQLenPdf::62               10373                       # What write queue length does an incoming req see (Count)
system.loc_mem_ctrl.wrQLenPdf::63               12253                       # What write queue length does an incoming req see (Count)
system.loc_mem_ctrl.wrQLenPdf::64               13095                       # What write queue length does an incoming req see (Count)
system.loc_mem_ctrl.wrQLenPdf::65               15502                       # What write queue length does an incoming req see (Count)
system.loc_mem_ctrl.wrQLenPdf::66               17292                       # What write queue length does an incoming req see (Count)
system.loc_mem_ctrl.wrQLenPdf::67               20884                       # What write queue length does an incoming req see (Count)
system.loc_mem_ctrl.wrQLenPdf::68               23446                       # What write queue length does an incoming req see (Count)
system.loc_mem_ctrl.wrQLenPdf::69               26708                       # What write queue length does an incoming req see (Count)
system.loc_mem_ctrl.wrQLenPdf::70               30788                       # What write queue length does an incoming req see (Count)
system.loc_mem_ctrl.wrQLenPdf::71               34605                       # What write queue length does an incoming req see (Count)
system.loc_mem_ctrl.wrQLenPdf::72               39341                       # What write queue length does an incoming req see (Count)
system.loc_mem_ctrl.wrQLenPdf::73               43445                       # What write queue length does an incoming req see (Count)
system.loc_mem_ctrl.wrQLenPdf::74               48714                       # What write queue length does an incoming req see (Count)
system.loc_mem_ctrl.wrQLenPdf::75               52291                       # What write queue length does an incoming req see (Count)
system.loc_mem_ctrl.wrQLenPdf::76               57971                       # What write queue length does an incoming req see (Count)
[...]
system.loc_mem_ctrl.dram_2.perBankRdBursts::4       322429                       # Per bank write bursts (Count)
system.loc_mem_ctrl.dram_2.perBankRdBursts::5       321540                       # Per bank write bursts (Count)
system.loc_mem_ctrl.dram_2.perBankRdBursts::6       322396                       # Per bank write bursts (Count)
system.loc_mem_ctrl.dram_2.perBankRdBursts::7       321282                       # Per bank write bursts (Count)
system.loc_mem_ctrl.dram_2.perBankRdBursts::8       321234                       # Per bank write bursts (Count)
system.loc_mem_ctrl.dram_2.perBankRdBursts::9       321660                       # Per bank write bursts (Count)
system.loc_mem_ctrl.dram_2.perBankRdBursts::10       322184                       # Per bank write bursts (Count)
system.loc_mem_ctrl.dram_2.perBankRdBursts::11       322181                       # Per bank write bursts (Count)
system.loc_mem_ctrl.dram_2.perBankRdBursts::12       321188                       # Per bank write bursts (Count)
system.loc_mem_ctrl.dram_2.perBankRdBursts::13       323176                       # Per bank write bursts (Count)
system.loc_mem_ctrl.dram_2.perBankRdBursts::14       321178                       # Per bank write bursts (Count)
system.loc_mem_ctrl.dram_2.perBankRdBursts::15       321360                       # Per bank write bursts (Count)
system.loc_mem_ctrl.dram_2.perBankWrBursts::0       163206                       # Per bank write bursts (Count)
system.loc_mem_ctrl.dram_2.perBankWrBursts::1       163376                       # Per bank write bursts (Count)
system.loc_mem_ctrl.dram_2.perBankWrBursts::2       163346                       # Per bank write bursts (Count)
system.loc_mem_ctrl.dram_2.perBankWrBursts::3       162624                       # Per bank write bursts (Count)
system.loc_mem_ctrl.dram_2.perBankWrBursts::4       164064                       # Per bank write bursts (Count)
system.loc_mem_ctrl.dram_2.perBankWrBursts::5       163506                       # Per bank write bursts (Count)
system.loc_mem_ctrl.dram_2.perBankWrBursts::6       162590                       # Per bank write bursts (Count)
system.loc_mem_ctrl.dram_2.perBankWrBursts::7       163484                       # Per bank write bursts (Count)
system.loc_mem_ctrl.dram_2.perBankWrBursts::8       162878                       # Per bank write bursts (Count)
system.loc_mem_ctrl.dram_2.perBankWrBursts::9       162862                       # Per bank write bursts (Count)
system.loc_mem_ctrl.dram_2.perBankWrBursts::10       163450                       # Per bank write bursts (Count)
system.loc_mem_ctrl.dram_2.perBankWrBursts::11       163582                       # Per bank write bursts (Count)
system.loc_mem_ctrl.dram_2.perBankWrBursts::12       163344                       # Per bank write bursts (Count)
system.loc_mem_ctrl.dram_2.perBankWrBursts::13       162920                       # Per bank write bursts (Count)
system.loc_mem_ctrl.dram_2.perBankWrBursts::14       164166                       # Per bank write bursts (Count)
system.loc_mem_ctrl.dram_2.perBankWrBursts::15       163632                       # Per bank write bursts (Count)
system.loc_mem_ctrl.dram_2.totQLat       850313382378                       # Total ticks spent queuing (Tick)
system.loc_mem_ctrl.dram_2.totBusLat      10297576000                       # Total ticks spent in databus transfers (Tick)
system.loc_mem_ctrl.dram_2.totMemAccLat  953289142378                       # Total ticks spent from burst creation until serviced by the DRAM (Tick)
system.loc_mem_ctrl.dram_2.avgQLat          165148.26                       # Average queueing delay per DRAM burst ((Tick/Count))
system.loc_mem_ctrl.dram_2.avgBusLat          2000.00                       # Average bus latency per DRAM burst ((Tick/Count))
system.loc_mem_ctrl.dram_2.avgMemAccLat     185148.26                       # Average memory access latency per DRAM burst ((Tick/Count))
system.loc_mem_ctrl.dram_2.readRowHits        2571677                       # Number of row buffer hits during reads (Count)
system.loc_mem_ctrl.dram_2.writeRowHits       1304996                       # Number of row buffer hits during writes (Count)
system.loc_mem_ctrl.dram_2.readRowHitRate        49.95                       # Row buffer hit rate for reads (Ratio)
system.loc_mem_ctrl.dram_2.writeRowHitRate        49.94                       # Row buffer hit rate for writes (Ratio)
system.loc_mem_ctrl.dram_2.bytesPerActivate::samples      3885143                       # Bytes accessed per row activation (Byte)
system.loc_mem_ctrl.dram_2.bytesPerActivate::mean    63.930237                       # Bytes accessed per row activation (Byte)
system.loc_mem_ctrl.dram_2.bytesPerActivate::gmean    63.902859                       # Bytes accessed per row activation (Byte)
system.loc_mem_ctrl.dram_2.bytesPerActivate::stdev     1.515631                       # Bytes accessed per row activation (Byte)
system.loc_mem_ctrl.dram_2.bytesPerActivate::32-47         8558      0.22%      0.22% # Bytes accessed per row activation (Byte)
system.loc_mem_ctrl.dram_2.bytesPerActivate::64-79      3876541     99.78%    100.00% # Bytes accessed per row activation (Byte)
system.loc_mem_ctrl.dram_2.bytesPerActivate::128-143           44      0.00%    100.00% # Bytes accessed per row activation (Byte)
system.loc_mem_ctrl.dram_2.bytesPerActivate::total      3885143                       # Bytes accessed per row activation (Byte)
system.loc_mem_ctrl.dram_2.bytesRead        164761216                       # Total bytes read (Byte)
system.loc_mem_ctrl.dram_2.bytesWritten      83616960                       # Total bytes written (Byte)
system.loc_mem_ctrl.dram_2.avgRdBW        8238.060800                       # Average DRAM read bandwidth in MiBytes/s ((Byte/Second))
system.loc_mem_ctrl.dram_2.avgWrBW        4180.848000                       # Average DRAM write bandwidth in MiBytes/s ((Byte/Second))
system.loc_mem_ctrl.dram_2.peakBW            16000.00                       # Theoretical peak bandwidth in MiByte/s ((Byte/Second))
system.loc_mem_ctrl.dram_2.busUtil              77.62                       # Data bus utilization in percentage (Ratio)
system.loc_mem_ctrl.dram_2.busUtilRead          51.49                       # Data bus utilization in percentage for reads (Ratio)
system.loc_mem_ctrl.dram_2.busUtilWrite         26.13                       # Data bus utilization in percentage for writes (Ratio)
system.loc_mem_ctrl.dram_2.pageHitRate          49.95                       # Row buffer hit rate, read and write combined (Ratio)
system.loc_mem_ctrl.dram_2.power_state.pwrStateResidencyTicks::UNDEFINED  20000000000                       # Cumulative time (in ticks) in various power states (Tick)
system.loc_mem_ctrl.dram_2.rank0.actEnergy            0                       # Energy for activate commands per rank (pJ) (Joule)
system.loc_mem_ctrl.dram_2.rank0.preEnergy            0                       # Energy for precharge commands per rank (pJ) (Joule)
system.loc_mem_ctrl.dram_2.rank0.readEnergy            0                       # Energy for read commands per rank (pJ) (Joule)
system.loc_mem_ctrl.dram_2.rank0.writeEnergy            0                       # Energy for write commands per rank (pJ) (Joule)
system.loc_mem_ctrl.dram_2.rank0.refreshEnergy            0                       # Energy for refresh commands per rank (pJ) (Joule)
system.loc_mem_ctrl.dram_2.rank0.actBackEnergy            0                       # Energy for active background per rank (pJ) (Joule)
system.loc_mem_ctrl.dram_2.rank0.preBackEnergy            0                       # Energy for precharge background per rank (pJ) (Joule)
system.loc_mem_ctrl.dram_2.rank0.actPowerDownEnergy            0                       # Energy for active power-down per rank (pJ) (Joule)
system.loc_mem_ctrl.dram_2.rank0.prePowerDownEnergy            0                       # Energy for precharge power-down per rank (pJ) (Joule)
system.loc_mem_ctrl.dram_2.rank0.selfRefreshEnergy            0                       # Energy for self refresh per rank (pJ) (Joule)
system.loc_mem_ctrl.dram_2.rank0.totalEnergy            0                       # Total energy per rank (pJ) (Joule)
system.loc_mem_ctrl.dram_2.rank0.averagePower            0                       # Core power per rank (mW) (Watt)
system.loc_mem_ctrl.dram_2.rank0.totalIdleTime            0                       # Total Idle time Per DRAM Rank (Tick)
system.loc_mem_ctrl.dram_2.rank0.pwrStateTime::IDLE     48961001                       # Time in different power states (Tick)
system.loc_mem_ctrl.dram_2.rank0.pwrStateTime::REF   1132120000                       # Time in different power states (Tick)
system.loc_mem_ctrl.dram_2.rank0.pwrStateTime::SREF            0                       # Time in different power states (Tick)
system.loc_mem_ctrl.dram_2.rank0.pwrStateTime::PRE_PDN            0                       # Time in different power states (Tick)
system.loc_mem_ctrl.dram_2.rank0.pwrStateTime::ACT  18818918999                       # Time in different power states (Tick)
system.loc_mem_ctrl.dram_2.rank0.pwrStateTime::ACT_PDN            0                       # Time in different power states (Tick)
system.loc_mem_ctrl.power_state.pwrStateResidencyTicks::UNDEFINED  20000000000                       # Cumulative time (in ticks) in various power states (Tick)
system.mem_ctrl.bytesRead::generator        329597184                       # Number of bytes read from this memory (Byte)
system.mem_ctrl.bytesRead::total            329597184                       # Number of bytes read from this memory (Byte)
system.mem_ctrl.bytesWritten::generator     167212480                       # Number of bytes written to this memory (Byte)
system.mem_ctrl.bytesWritten::total         167212480                       # Number of bytes written to this memory (Byte)
system.mem_ctrl.numReads::generator           5149956                       # Number of read requests responded to by this memory (Count)
system.mem_ctrl.numReads::total               5149956                       # Number of read requests responded to by this memory (Count)
system.mem_ctrl.numWrites::generator          2612695                       # Number of write requests responded to by this memory (Count)
system.mem_ctrl.numWrites::total              2612695                       # Number of write requests responded to by this memory (Count)
system.mem_ctrl.bwRead::generator         16479859200                       # Total read bandwidth from this memory ((Byte/Second))
system.mem_ctrl.bwRead::total             16479859200                       # Total read bandwidth from this memory ((Byte/Second))
system.mem_ctrl.bwWrite::generator         8360624000                       # Write bandwidth from this memory ((Byte/Second))
system.mem_ctrl.bwWrite::total             8360624000                       # Write bandwidth from this memory ((Byte/Second))
system.mem_ctrl.bwTotal::generator        24840483200                       # Total bandwidth to/from this memory ((Byte/Second))
system.mem_ctrl.bwTotal::total            24840483200                       # Total bandwidth to/from this memory ((Byte/Second))
system.mem_ctrl.readReqs                      5150185                       # Number of read requests accepted (Count)
system.mem_ctrl.writeReqs                     2612695                       # Number of write requests accepted (Count)
system.mem_ctrl.servicedByWrQ                       8                       # Number of controller read bursts serviced by the write queue (Count)
system.mem_ctrl.mergedWrBursts                      4                       # Number of controller write bursts merged with an existing one (Count)
system.mem_ctrl.numRdRetry                    5028904                       # Number of times read queue was full causing retry (Count)
system.mem_ctrl.numWrRetry                    2551128                       # Number of times write queue was full causing retry (Count)
system.mem_ctrl.readPktSize::0                      0                       # Read request sizes (log2) (Count)
system.mem_ctrl.readPktSize::1                      0                       # Read request sizes (log2) (Count)
system.mem_ctrl.readPktSize::2                      0                       # Read request sizes (log2) (Count)
system.mem_ctrl.readPktSize::3                      0                       # Read request sizes (log2) (Count)
system.mem_ctrl.readPktSize::4                      0                       # Read request sizes (log2) (Count)
system.mem_ctrl.readPktSize::5                      0                       # Read request sizes (log2) (Count)
system.mem_ctrl.readPktSize::6                5150185                       # Read request sizes (log2) (Count)
system.mem_ctrl.writePktSize::0                     0                       # Write request sizes (log2) (Count)
system.mem_ctrl.writePktSize::1                     0                       # Write request sizes (log2) (Count)
system.mem_ctrl.writePktSize::2                     0                       # Write request sizes (log2) (Count)
system.mem_ctrl.writePktSize::3                     0                       # Write request sizes (log2) (Count)
system.mem_ctrl.writePktSize::4                     0                       # Write request sizes (log2) (Count)
system.mem_ctrl.writePktSize::5                     0                       # Write request sizes (log2) (Count)
system.mem_ctrl.writePktSize::6               2612695                       # Write request sizes (log2) (Count)
system.mem_ctrl.bytesReadWrQ                      512                       # Total number of bytes read from write queue (Byte)
system.mem_ctrl.bytesReadSys                329611840                       # Total read bytes from the system interface side (Byte)
system.mem_ctrl.bytesWrittenSys             167212480                       # Total written bytes from the system interface side (Byte)
system.mem_ctrl.avgRdBWSys               16480592000.00000000                       # Average system read bandwidth in Byte/s ((Byte/Second))
system.mem_ctrl.avgWrBWSys               8360624000.00000000                       # Average system write bandwidth in Byte/s ((Byte/Second))
system.mem_ctrl.totGap                   14156459645568006144                       # Total gap between requests (Tick)
system.mem_ctrl.avgGap                   1823609233373.18                       # Average gap between requests ((Tick/Count))
system.mem_ctrl.avgORBLen                    255.9943                       # Average ORB length ((Count/Tick))
system.mem_ctrl.avgLocRdQLenStrt               100.81                       # Average local read queue length ((Count/Tick))
system.mem_ctrl.avgLocWrQLenStrt               100.16                       # Average local write queue length ((Count/Tick))
system.mem_ctrl.avgFarRdQLenStrt                 0.00                       # Average far read queue length ((Count/Tick))
system.mem_ctrl.avgFarWrQLenStrt                 0.00                       # Average far write queue length ((Count/Tick))
system.mem_ctrl.avgLocRdQLenEnq                101.76                       # Average local read queue length when enqueuing ((Count/Tick))
system.mem_ctrl.avgLocWrQLenEnq                101.11                       # Average local write queue length when enqueuing ((Count/Tick))
system.mem_ctrl.avgFarRdQLenEnq                  0.00                       # Average far read queue length when enqueuing ((Count/Tick))
system.mem_ctrl.avgFarWrQLenEnq                  0.00                       # Average far write queue length when enqueuing ((Count/Tick))
system.mem_ctrl.numWrBacks                          0                       # Total number of write backs from DRAM cache to main memory (Unspecified)
system.mem_ctrl.totNumConf                       1799                       # Total number of packets conflicted on DRAM cache (Unspecified)
system.mem_ctrl.totNumORBFull                 7580032                       # Total number of packets ORB full (Unspecified)
system.mem_ctrl.totNumCRBFull                       0                       # Total number of packets conflicted yet couldn't enter confBuffer (Unspecified)
system.mem_ctrl.maxNumConf                          2                       # Maximum number of packets conflicted on DRAM cache (Unspecified)
system.mem_ctrl.sentLocRdPort                 5150025                       # stat (Unspecified)
system.mem_ctrl.sentLocWrPort                 2612668                       # stat (Unspecified)
system.mem_ctrl.failedLocRdPort              11010436                       # stat (Unspecified)
system.mem_ctrl.failedLocWrPort              11002497                       # stat (Unspecified)
system.mem_ctrl.recvdRdPort                         0                       # stat (Unspecified)
system.mem_ctrl.sentFarRdPort                       0                       # stat (Unspecified)
system.mem_ctrl.sentFarWrPort                       0                       # stat (Unspecified)
system.mem_ctrl.failedFarRdPort                     0                       # stat (Unspecified)
system.mem_ctrl.failedFarWrPort                     0                       # stat (Unspecified)
system.mem_ctrl.totPktsServiceTime         5119803558                       # stat (Unspecified)
system.mem_ctrl.totPktsORBTime             5118918063                       # stat (Unspecified)
system.mem_ctrl.totTimeFarRdtoSend                  0                       # stat (Unspecified)
system.mem_ctrl.totTimeFarRdtoRecv                  0                       # stat (Unspecified)
system.mem_ctrl.totTimeFarWrtoSend                  0                       # stat (Unspecified)
system.mem_ctrl.totTimeInLocRead         48195217919236148035584                       # stat (Unspecified)
system.mem_ctrl.totTimeInLocWrite        26120240580718                       # stat (Unspecified)
system.mem_ctrl.totTimeInFarRead                    0                       # stat (Unspecified)
system.mem_ctrl.numTotHits                    7762880                       # stat (Unspecified)
system.mem_ctrl.numTotMisses                        0                       # stat (Unspecified)
system.mem_ctrl.numColdMisses                       0                       # stat (Unspecified)
system.mem_ctrl.numHotMisses                        0                       # stat (Unspecified)
system.mem_ctrl.numRdMissClean                      0                       # stat (Unspecified)
system.mem_ctrl.numRdMissDirty                      0                       # stat (Unspecified)
system.mem_ctrl.numRdHit                      5150185                       # stat (Unspecified)
system.mem_ctrl.numWrMissClean                      0                       # stat (Unspecified)
system.mem_ctrl.numWrMissDirty                      0                       # stat (Unspecified)
system.mem_ctrl.numWrHit                      2612695                       # stat (Unspecified)
system.mem_ctrl.numRdHitDirty                 3254865                       # stat (Unspecified)
system.mem_ctrl.numRdHitClean                 1895320                       # stat (Unspecified)
system.mem_ctrl.numWrHitDirty                 1651094                       # stat (Unspecified)
system.mem_ctrl.numWrHitClean                  961601                       # stat (Unspecified)
system.mem_ctrl.power_state.pwrStateResidencyTicks::UNDEFINED  20000000000                       # Cumulative time (in ticks) in various power states (Tick)
system.workload.inst.arm                            0                       # number of arm instructions executed (Count)
system.workload.inst.quiesce                        0                       # number of quiesce instructions executed (Count)

---------- End Simulation Statistics   ----------
