
---------- Begin Simulation Statistics ----------
simSeconds                                          5                       # Number of seconds simulated (Second)
simTicks                                 5000000000000                       # Number of ticks simulated (Tick)
finalTick                                31035545185250                       # Number of ticks from beginning of simulation (restored from checkpoints and never reset) (Tick)
simFreq                                  1000000000000                       # The number of ticks per simulated second ((Tick/Second))
hostSeconds                                  19053.74                       # Real time elapsed on the host (Second)
hostTickRate                                262415716                       # The number of ticks simulated per host second (ticks/s) ((Tick/Second))
hostMemory                                   13890016                       # Number of bytes of host memory used (Byte)
simInsts                                  39656119196                       # Number of instructions simulated (Count)
simOps                                    42945061972                       # Number of ops (including micro ops) simulated (Count)
hostInstRate                                  2081278                       # Simulator instruction rate (inst/s) ((Count/Second))
hostOpRate                                    2253892                       # Simulator op (including micro ops) rate (op/s) ((Count/Second))
system.atomicCpu0.numCycles                         0                       # Number of cpu cycles simulated (Cycle)
system.atomicCpu0.numWorkItemsStarted               0                       # Number of work items this cpu started (Count)
system.atomicCpu0.numWorkItemsCompleted             0                       # Number of work items this cpu completed (Count)
system.atomicCpu0.exec_context.thread_0.numInsts            0                       # Number of instructions committed (Count)
system.atomicCpu0.exec_context.thread_0.numOps            0                       # Number of ops (including micro ops) committed (Count)
system.atomicCpu0.exec_context.thread_0.numIntAluAccesses            0                       # Number of integer alu accesses (Count)
system.atomicCpu0.exec_context.thread_0.numFpAluAccesses            0                       # Number of float alu accesses (Count)
system.atomicCpu0.exec_context.thread_0.numVecAluAccesses            0                       # Number of vector alu accesses (Count)
system.atomicCpu0.exec_context.thread_0.numCallsReturns            0                       # Number of times a function call or return occured (Count)
system.atomicCpu0.exec_context.thread_0.numCondCtrlInsts            0                       # Number of instructions that are conditional controls (Count)
system.atomicCpu0.exec_context.thread_0.numIntInsts            0                       # Number of integer instructions (Count)
system.atomicCpu0.exec_context.thread_0.numFpInsts            0                       # Number of float instructions (Count)
system.atomicCpu0.exec_context.thread_0.numVecInsts            0                       # Number of vector instructions (Count)
system.atomicCpu0.exec_context.thread_0.numIntRegReads            0                       # Number of times the integer registers were read (Count)
system.atomicCpu0.exec_context.thread_0.numIntRegWrites            0                       # Number of times the integer registers were written (Count)
system.atomicCpu0.exec_context.thread_0.numFpRegReads            0                       # Number of times the floating registers were read (Count)
system.atomicCpu0.exec_context.thread_0.numFpRegWrites            0                       # Number of times the floating registers were written (Count)
system.atomicCpu0.exec_context.thread_0.numVecRegReads            0                       # Number of times the vector registers were read (Count)
system.atomicCpu0.exec_context.thread_0.numVecRegWrites            0                       # Number of times the vector registers were written (Count)
system.atomicCpu0.exec_context.thread_0.numVecPredRegReads            0                       # Number of times the predicate registers were read (Count)
system.atomicCpu0.exec_context.thread_0.numVecPredRegWrites            0                       # Number of times the predicate registers were written (Count)
system.atomicCpu0.exec_context.thread_0.numMiscRegReads            0                       # Number of times the Misc registers were read (Count)
system.atomicCpu0.exec_context.thread_0.numMiscRegWrites            0                       # Number of times the Misc registers were written (Count)
system.atomicCpu0.exec_context.thread_0.numMemRefs            0                       # Number of memory refs (Count)
system.atomicCpu0.exec_context.thread_0.numLoadInsts            0                       # Number of load instructions (Count)
system.atomicCpu0.exec_context.thread_0.numStoreInsts            0                       # Number of store instructions (Count)
system.atomicCpu0.exec_context.thread_0.numIdleCycles            0                       # Number of idle cycles (Cycle)
system.atomicCpu0.exec_context.thread_0.numBusyCycles            0                       # Number of busy cycles (Cycle)
system.atomicCpu0.exec_context.thread_0.notIdleFraction            0                       # Percentage of non-idle cycles (Ratio)
system.atomicCpu0.exec_context.thread_0.idleFraction            1                       # Percentage of idle cycles (Ratio)
system.atomicCpu0.exec_context.thread_0.statExecutedInstType::No_OpClass            0                       # Class of executed instruction. (Count)
system.atomicCpu0.exec_context.thread_0.statExecutedInstType::IntAlu            0                       # Class of executed instruction. (Count)
system.atomicCpu0.exec_context.thread_0.statExecutedInstType::IntMult            0                       # Class of executed instruction. (Count)
system.atomicCpu0.exec_context.thread_0.statExecutedInstType::IntDiv            0                       # Class of executed instruction. (Count)
system.atomicCpu0.exec_context.thread_0.statExecutedInstType::FloatAdd            0                       # Class of executed instruction. (Count)
system.atomicCpu0.exec_context.thread_0.statExecutedInstType::FloatCmp            0                       # Class of executed instruction. (Count)
system.atomicCpu0.exec_context.thread_0.statExecutedInstType::FloatCvt            0                       # Class of executed instruction. (Count)
system.atomicCpu0.exec_context.thread_0.statExecutedInstType::FloatMult            0                       # Class of executed instruction. (Count)
system.atomicCpu0.exec_context.thread_0.statExecutedInstType::FloatMultAcc            0                       # Class of executed instruction. (Count)
system.atomicCpu0.exec_context.thread_0.statExecutedInstType::FloatDiv            0                       # Class of executed instruction. (Count)
system.atomicCpu0.exec_context.thread_0.statExecutedInstType::FloatMisc            0                       # Class of executed instruction. (Count)
system.atomicCpu0.exec_context.thread_0.statExecutedInstType::FloatSqrt            0                       # Class of executed instruction. (Count)
system.atomicCpu0.exec_context.thread_0.statExecutedInstType::SimdAdd            0                       # Class of executed instruction. (Count)
system.atomicCpu0.exec_context.thread_0.statExecutedInstType::SimdAddAcc            0                       # Class of executed instruction. (Count)
system.atomicCpu0.exec_context.thread_0.statExecutedInstType::SimdAlu            0                       # Class of executed instruction. (Count)
system.atomicCpu0.exec_context.thread_0.statExecutedInstType::SimdCmp            0                       # Class of executed instruction. (Count)
system.atomicCpu0.exec_context.thread_0.statExecutedInstType::SimdCvt            0                       # Class of executed instruction. (Count)
system.atomicCpu0.exec_context.thread_0.statExecutedInstType::SimdMisc            0                       # Class of executed instruction. (Count)
system.atomicCpu0.exec_context.thread_0.statExecutedInstType::SimdMult            0                       # Class of executed instruction. (Count)
system.atomicCpu0.exec_context.thread_0.statExecutedInstType::SimdMultAcc            0                       # Class of executed instruction. (Count)
system.atomicCpu0.exec_context.thread_0.statExecutedInstType::SimdShift            0                       # Class of executed instruction. (Count)
system.atomicCpu0.exec_context.thread_0.statExecutedInstType::SimdShiftAcc            0                       # Class of executed instruction. (Count)
system.atomicCpu0.exec_context.thread_0.statExecutedInstType::SimdDiv            0                       # Class of executed instruction. (Count)
system.atomicCpu0.exec_context.thread_0.statExecutedInstType::SimdSqrt            0                       # Class of executed instruction. (Count)
system.atomicCpu0.exec_context.thread_0.statExecutedInstType::SimdFloatAdd            0                       # Class of executed instruction. (Count)
system.atomicCpu0.exec_context.thread_0.statExecutedInstType::SimdFloatAlu            0                       # Class of executed instruction. (Count)
system.atomicCpu0.exec_context.thread_0.statExecutedInstType::SimdFloatCmp            0                       # Class of executed instruction. (Count)
system.atomicCpu0.exec_context.thread_0.statExecutedInstType::SimdFloatCvt            0                       # Class of executed instruction. (Count)
system.atomicCpu0.exec_context.thread_0.statExecutedInstType::SimdFloatDiv            0                       # Class of executed instruction. (Count)
system.atomicCpu0.exec_context.thread_0.statExecutedInstType::SimdFloatMisc            0                       # Class of executed instruction. (Count)
system.atomicCpu0.exec_context.thread_0.statExecutedInstType::SimdFloatMult            0                       # Class of executed instruction. (Count)
system.atomicCpu0.exec_context.thread_0.statExecutedInstType::SimdFloatMultAcc            0                       # Class of executed instruction. (Count)
system.atomicCpu0.exec_context.thread_0.statExecutedInstType::SimdFloatSqrt            0                       # Class of executed instruction. (Count)
system.atomicCpu0.exec_context.thread_0.statExecutedInstType::SimdReduceAdd            0                       # Class of executed instruction. (Count)
system.atomicCpu0.exec_context.thread_0.statExecutedInstType::SimdReduceAlu            0                       # Class of executed instruction. (Count)
system.atomicCpu0.exec_context.thread_0.statExecutedInstType::SimdReduceCmp            0                       # Class of executed instruction. (Count)
system.atomicCpu0.exec_context.thread_0.statExecutedInstType::SimdFloatReduceAdd            0                       # Class of executed instruction. (Count)
system.atomicCpu0.exec_context.thread_0.statExecutedInstType::SimdFloatReduceCmp            0                       # Class of executed instruction. (Count)
system.atomicCpu0.exec_context.thread_0.statExecutedInstType::SimdAes            0                       # Class of executed instruction. (Count)
system.atomicCpu0.exec_context.thread_0.statExecutedInstType::SimdAesMix            0                       # Class of executed instruction. (Count)
system.atomicCpu0.exec_context.thread_0.statExecutedInstType::SimdSha1Hash            0                       # Class of executed instruction. (Count)
system.atomicCpu0.exec_context.thread_0.statExecutedInstType::SimdSha1Hash2            0                       # Class of executed instruction. (Count)
system.atomicCpu0.exec_context.thread_0.statExecutedInstType::SimdSha256Hash            0                       # Class of executed instruction. (Count)
system.atomicCpu0.exec_context.thread_0.statExecutedInstType::SimdSha256Hash2            0                       # Class of executed instruction. (Count)
system.atomicCpu0.exec_context.thread_0.statExecutedInstType::SimdShaSigma2            0                       # Class of executed instruction. (Count)
system.atomicCpu0.exec_context.thread_0.statExecutedInstType::SimdShaSigma3            0                       # Class of executed instruction. (Count)
system.atomicCpu0.exec_context.thread_0.statExecutedInstType::SimdPredAlu            0                       # Class of executed instruction. (Count)
system.atomicCpu0.exec_context.thread_0.statExecutedInstType::MemRead            0                       # Class of executed instruction. (Count)
system.atomicCpu0.exec_context.thread_0.statExecutedInstType::MemWrite            0                       # Class of executed instruction. (Count)
system.atomicCpu0.exec_context.thread_0.statExecutedInstType::FloatMemRead            0                       # Class of executed instruction. (Count)
system.atomicCpu0.exec_context.thread_0.statExecutedInstType::FloatMemWrite            0                       # Class of executed instruction. (Count)
system.atomicCpu0.exec_context.thread_0.statExecutedInstType::IprAccess            0                       # Class of executed instruction. (Count)
system.atomicCpu0.exec_context.thread_0.statExecutedInstType::InstPrefetch            0                       # Class of executed instruction. (Count)
system.atomicCpu0.exec_context.thread_0.statExecutedInstType::total            0                       # Class of executed instruction. (Count)
system.atomicCpu0.mmu.dtb.rdAccesses                0                       # TLB accesses on read requests (Count)
system.atomicCpu0.mmu.dtb.wrAccesses                0                       # TLB accesses on write requests (Count)
system.atomicCpu0.mmu.dtb.rdMisses                  0                       # TLB misses on read requests (Count)
system.atomicCpu0.mmu.dtb.wrMisses                  0                       # TLB misses on write requests (Count)
system.atomicCpu0.mmu.dtb.walker.power_state.pwrStateResidencyTicks::UNDEFINED 31035545185250                       # Cumulative time (in ticks) in various power states (Tick)
system.atomicCpu0.mmu.itb.rdAccesses                0                       # TLB accesses on read requests (Count)
system.atomicCpu0.mmu.itb.wrAccesses                0                       # TLB accesses on write requests (Count)
system.atomicCpu0.mmu.itb.rdMisses                  0                       # TLB misses on read requests (Count)
system.atomicCpu0.mmu.itb.wrMisses                  0                       # TLB misses on write requests (Count)
system.atomicCpu0.mmu.itb.walker.power_state.pwrStateResidencyTicks::UNDEFINED 31035545185250                       # Cumulative time (in ticks) in various power states (Tick)
system.atomicCpu0.power_state.pwrStateResidencyTicks::OFF 31035545185250                       # Cumulative time (in ticks) in various power states (Tick)
system.atomicCpu0.thread_0.numInsts                 0                       # Number of Instructions committed (Count)
system.atomicCpu0.thread_0.numOps                   0                       # Number of Ops committed (Count)
system.atomicCpu0.thread_0.numMemRefs               0                       # Number of Memory References (Count)
system.atomicCpu1.numCycles                         0                       # Number of cpu cycles simulated (Cycle)
system.atomicCpu1.numWorkItemsStarted               0                       # Number of work items this cpu started (Count)
system.atomicCpu1.numWorkItemsCompleted             0                       # Number of work items this cpu completed (Count)
system.atomicCpu1.exec_context.thread_0.numInsts            0                       # Number of instructions committed (Count)
system.atomicCpu1.exec_context.thread_0.numOps            0                       # Number of ops (including micro ops) committed (Count)
system.atomicCpu1.exec_context.thread_0.numIntAluAccesses            0                       # Number of integer alu accesses (Count)
system.atomicCpu1.exec_context.thread_0.numFpAluAccesses            0                       # Number of float alu accesses (Count)
system.atomicCpu1.exec_context.thread_0.numVecAluAccesses            0                       # Number of vector alu accesses (Count)
system.atomicCpu1.exec_context.thread_0.numCallsReturns            0                       # Number of times a function call or return occured (Count)
system.atomicCpu1.exec_context.thread_0.numCondCtrlInsts            0                       # Number of instructions that are conditional controls (Count)
system.atomicCpu1.exec_context.thread_0.numIntInsts            0                       # Number of integer instructions (Count)
system.atomicCpu1.exec_context.thread_0.numFpInsts            0                       # Number of float instructions (Count)
system.atomicCpu1.exec_context.thread_0.numVecInsts            0                       # Number of vector instructions (Count)
system.atomicCpu1.exec_context.thread_0.numIntRegReads            0                       # Number of times the integer registers were read (Count)
system.atomicCpu1.exec_context.thread_0.numIntRegWrites            0                       # Number of times the integer registers were written (Count)
system.atomicCpu1.exec_context.thread_0.numFpRegReads            0                       # Number of times the floating registers were read (Count)
system.atomicCpu1.exec_context.thread_0.numFpRegWrites            0                       # Number of times the floating registers were written (Count)
system.atomicCpu1.exec_context.thread_0.numVecRegReads            0                       # Number of times the vector registers were read (Count)
system.atomicCpu1.exec_context.thread_0.numVecRegWrites            0                       # Number of times the vector registers were written (Count)
system.atomicCpu1.exec_context.thread_0.numVecPredRegReads            0                       # Number of times the predicate registers were read (Count)
system.atomicCpu1.exec_context.thread_0.numVecPredRegWrites            0                       # Number of times the predicate registers were written (Count)
system.atomicCpu1.exec_context.thread_0.numMiscRegReads            0                       # Number of times the Misc registers were read (Count)
system.atomicCpu1.exec_context.thread_0.numMiscRegWrites            0                       # Number of times the Misc registers were written (Count)
system.atomicCpu1.exec_context.thread_0.numMemRefs            0                       # Number of memory refs (Count)
system.atomicCpu1.exec_context.thread_0.numLoadInsts            0                       # Number of load instructions (Count)
system.atomicCpu1.exec_context.thread_0.numStoreInsts            0                       # Number of store instructions (Count)
system.atomicCpu1.exec_context.thread_0.numIdleCycles            0                       # Number of idle cycles (Cycle)
system.atomicCpu1.exec_context.thread_0.numBusyCycles            0                       # Number of busy cycles (Cycle)
system.atomicCpu1.exec_context.thread_0.notIdleFraction            0                       # Percentage of non-idle cycles (Ratio)
system.atomicCpu1.exec_context.thread_0.idleFraction            1                       # Percentage of idle cycles (Ratio)
system.atomicCpu1.exec_context.thread_0.statExecutedInstType::No_OpClass            0                       # Class of executed instruction. (Count)
system.atomicCpu1.exec_context.thread_0.statExecutedInstType::IntAlu            0                       # Class of executed instruction. (Count)
system.atomicCpu1.exec_context.thread_0.statExecutedInstType::IntMult            0                       # Class of executed instruction. (Count)
system.atomicCpu1.exec_context.thread_0.statExecutedInstType::IntDiv            0                       # Class of executed instruction. (Count)
system.atomicCpu1.exec_context.thread_0.statExecutedInstType::FloatAdd            0                       # Class of executed instruction. (Count)
system.atomicCpu1.exec_context.thread_0.statExecutedInstType::FloatCmp            0                       # Class of executed instruction. (Count)
system.atomicCpu1.exec_context.thread_0.statExecutedInstType::FloatCvt            0                       # Class of executed instruction. (Count)
system.atomicCpu1.exec_context.thread_0.statExecutedInstType::FloatMult            0                       # Class of executed instruction. (Count)
system.atomicCpu1.exec_context.thread_0.statExecutedInstType::FloatMultAcc            0                       # Class of executed instruction. (Count)
system.atomicCpu1.exec_context.thread_0.statExecutedInstType::FloatDiv            0                       # Class of executed instruction. (Count)
system.atomicCpu1.exec_context.thread_0.statExecutedInstType::FloatMisc            0                       # Class of executed instruction. (Count)
system.atomicCpu1.exec_context.thread_0.statExecutedInstType::FloatSqrt            0                       # Class of executed instruction. (Count)
system.atomicCpu1.exec_context.thread_0.statExecutedInstType::SimdAdd            0                       # Class of executed instruction. (Count)
system.atomicCpu1.exec_context.thread_0.statExecutedInstType::SimdAddAcc            0                       # Class of executed instruction. (Count)
system.atomicCpu1.exec_context.thread_0.statExecutedInstType::SimdAlu            0                       # Class of executed instruction. (Count)
system.atomicCpu1.exec_context.thread_0.statExecutedInstType::SimdCmp            0                       # Class of executed instruction. (Count)
system.atomicCpu1.exec_context.thread_0.statExecutedInstType::SimdCvt            0                       # Class of executed instruction. (Count)
system.atomicCpu1.exec_context.thread_0.statExecutedInstType::SimdMisc            0                       # Class of executed instruction. (Count)
system.atomicCpu1.exec_context.thread_0.statExecutedInstType::SimdMult            0                       # Class of executed instruction. (Count)
system.atomicCpu1.exec_context.thread_0.statExecutedInstType::SimdMultAcc            0                       # Class of executed instruction. (Count)
system.atomicCpu1.exec_context.thread_0.statExecutedInstType::SimdShift            0                       # Class of executed instruction. (Count)
system.atomicCpu1.exec_context.thread_0.statExecutedInstType::SimdShiftAcc            0                       # Class of executed instruction. (Count)
system.atomicCpu1.exec_context.thread_0.statExecutedInstType::SimdDiv            0                       # Class of executed instruction. (Count)
system.atomicCpu1.exec_context.thread_0.statExecutedInstType::SimdSqrt            0                       # Class of executed instruction. (Count)
system.atomicCpu1.exec_context.thread_0.statExecutedInstType::SimdFloatAdd            0                       # Class of executed instruction. (Count)
system.atomicCpu1.exec_context.thread_0.statExecutedInstType::SimdFloatAlu            0                       # Class of executed instruction. (Count)
system.atomicCpu1.exec_context.thread_0.statExecutedInstType::SimdFloatCmp            0                       # Class of executed instruction. (Count)
system.atomicCpu1.exec_context.thread_0.statExecutedInstType::SimdFloatCvt            0                       # Class of executed instruction. (Count)
system.atomicCpu1.exec_context.thread_0.statExecutedInstType::SimdFloatDiv            0                       # Class of executed instruction. (Count)
system.atomicCpu1.exec_context.thread_0.statExecutedInstType::SimdFloatMisc            0                       # Class of executed instruction. (Count)
system.atomicCpu1.exec_context.thread_0.statExecutedInstType::SimdFloatMult            0                       # Class of executed instruction. (Count)
system.atomicCpu1.exec_context.thread_0.statExecutedInstType::SimdFloatMultAcc            0                       # Class of executed instruction. (Count)
system.atomicCpu1.exec_context.thread_0.statExecutedInstType::SimdFloatSqrt            0                       # Class of executed instruction. (Count)
system.atomicCpu1.exec_context.thread_0.statExecutedInstType::SimdReduceAdd            0                       # Class of executed instruction. (Count)
system.atomicCpu1.exec_context.thread_0.statExecutedInstType::SimdReduceAlu            0                       # Class of executed instruction. (Count)
system.atomicCpu1.exec_context.thread_0.statExecutedInstType::SimdReduceCmp            0                       # Class of executed instruction. (Count)
system.atomicCpu1.exec_context.thread_0.statExecutedInstType::SimdFloatReduceAdd            0                       # Class of executed instruction. (Count)
system.atomicCpu1.exec_context.thread_0.statExecutedInstType::SimdFloatReduceCmp            0                       # Class of executed instruction. (Count)
system.atomicCpu1.exec_context.thread_0.statExecutedInstType::SimdAes            0                       # Class of executed instruction. (Count)
system.atomicCpu1.exec_context.thread_0.statExecutedInstType::SimdAesMix            0                       # Class of executed instruction. (Count)
system.atomicCpu1.exec_context.thread_0.statExecutedInstType::SimdSha1Hash            0                       # Class of executed instruction. (Count)
system.atomicCpu1.exec_context.thread_0.statExecutedInstType::SimdSha1Hash2            0                       # Class of executed instruction. (Count)
system.atomicCpu1.exec_context.thread_0.statExecutedInstType::SimdSha256Hash            0                       # Class of executed instruction. (Count)
system.atomicCpu1.exec_context.thread_0.statExecutedInstType::SimdSha256Hash2            0                       # Class of executed instruction. (Count)
system.atomicCpu1.exec_context.thread_0.statExecutedInstType::SimdShaSigma2            0                       # Class of executed instruction. (Count)
system.atomicCpu1.exec_context.thread_0.statExecutedInstType::SimdShaSigma3            0                       # Class of executed instruction. (Count)
system.atomicCpu1.exec_context.thread_0.statExecutedInstType::SimdPredAlu            0                       # Class of executed instruction. (Count)
system.atomicCpu1.exec_context.thread_0.statExecutedInstType::MemRead            0                       # Class of executed instruction. (Count)
system.atomicCpu1.exec_context.thread_0.statExecutedInstType::MemWrite            0                       # Class of executed instruction. (Count)
system.atomicCpu1.exec_context.thread_0.statExecutedInstType::FloatMemRead            0                       # Class of executed instruction. (Count)
system.atomicCpu1.exec_context.thread_0.statExecutedInstType::FloatMemWrite            0                       # Class of executed instruction. (Count)
system.atomicCpu1.exec_context.thread_0.statExecutedInstType::IprAccess            0                       # Class of executed instruction. (Count)
system.atomicCpu1.exec_context.thread_0.statExecutedInstType::InstPrefetch            0                       # Class of executed instruction. (Count)
system.atomicCpu1.exec_context.thread_0.statExecutedInstType::total            0                       # Class of executed instruction. (Count)
system.atomicCpu1.mmu.dtb.rdAccesses                0                       # TLB accesses on read requests (Count)
system.atomicCpu1.mmu.dtb.wrAccesses                0                       # TLB accesses on write requests (Count)
system.atomicCpu1.mmu.dtb.rdMisses                  0                       # TLB misses on read requests (Count)
system.atomicCpu1.mmu.dtb.wrMisses                  0                       # TLB misses on write requests (Count)
system.atomicCpu1.mmu.dtb.walker.power_state.pwrStateResidencyTicks::UNDEFINED 31035545185250                       # Cumulative time (in ticks) in various power states (Tick)
system.atomicCpu1.mmu.itb.rdAccesses                0                       # TLB accesses on read requests (Count)
system.atomicCpu1.mmu.itb.wrAccesses                0                       # TLB accesses on write requests (Count)
system.atomicCpu1.mmu.itb.rdMisses                  0                       # TLB misses on read requests (Count)
system.atomicCpu1.mmu.itb.wrMisses                  0                       # TLB misses on write requests (Count)
system.atomicCpu1.mmu.itb.walker.power_state.pwrStateResidencyTicks::UNDEFINED 31035545185250                       # Cumulative time (in ticks) in various power states (Tick)
system.atomicCpu1.power_state.pwrStateResidencyTicks::OFF 31035545185250                       # Cumulative time (in ticks) in various power states (Tick)
system.atomicCpu1.thread_0.numInsts                 0                       # Number of Instructions committed (Count)
system.atomicCpu1.thread_0.numOps                   0                       # Number of Ops committed (Count)
system.atomicCpu1.thread_0.numMemRefs               0                       # Number of Memory References (Count)
system.caches.delayHistogram::bucket_size           64                       # delay histogram for all message (Unspecified)
system.caches.delayHistogram::max_bucket          639                       # delay histogram for all message (Unspecified)
system.caches.delayHistogram::samples       303014459                       # delay histogram for all message (Unspecified)
system.caches.delayHistogram::mean           0.249353                       # delay histogram for all message (Unspecified)
system.caches.delayHistogram::stdev          1.394688                       # delay histogram for all message (Unspecified)
system.caches.delayHistogram             |   303014325    100.00%    100.00% |         127      0.00%    100.00% |           2      0.00%    100.00% |           0      0.00%    100.00% |           0      0.00%    100.00% |           2      0.00%    100.00% |           0      0.00%    100.00% |           2      0.00%    100.00% |           1      0.00%    100.00% |           0      0.00%    100.00% # delay histogram for all message (Unspecified)
system.caches.delayHistogram::total         303014459                       # delay histogram for all message (Unspecified)
system.caches.m_outstandReqHistSeqr::bucket_size            1                       (Unspecified)
system.caches.m_outstandReqHistSeqr::max_bucket            9                       (Unspecified)
system.caches.m_outstandReqHistSeqr::samples   8104853593                       (Unspecified)
system.caches.m_outstandReqHistSeqr::mean            1                       (Unspecified)
system.caches.m_outstandReqHistSeqr::gmean            1                       (Unspecified)
system.caches.m_outstandReqHistSeqr      |           0      0.00%      0.00% |  8104853593    100.00%    100.00% |           0      0.00%    100.00% |           0      0.00%    100.00% |           0      0.00%    100.00% |           0      0.00%    100.00% |           0      0.00%    100.00% |           0      0.00%    100.00% |           0      0.00%    100.00% |           0      0.00%    100.00% (Unspecified)
system.caches.m_outstandReqHistSeqr::total   8104853593                       (Unspecified)
system.caches.m_latencyHistSeqr::bucket_size          512                       (Unspecified)
system.caches.m_latencyHistSeqr::max_bucket         5119                       (Unspecified)
system.caches.m_latencyHistSeqr::samples   8104853591                       (Unspecified)
system.caches.m_latencyHistSeqr::mean        3.931991                       (Unspecified)
system.caches.m_latencyHistSeqr::gmean       1.034028                       (Unspecified)
system.caches.m_latencyHistSeqr::stdev      43.471671                       (Unspecified)
system.caches.m_latencyHistSeqr          |  8088104485     99.79%     99.79% |    15442390      0.19%     99.98% |      249954      0.00%     99.99% |     1001979      0.01%    100.00% |       54160      0.00%    100.00% |         603      0.00%    100.00% |          16      0.00%    100.00% |           4      0.00%    100.00% |           0      0.00%    100.00% |           0      0.00%    100.00% (Unspecified)
system.caches.m_latencyHistSeqr::total     8104853591                       (Unspecified)
system.caches.m_hitLatencyHistSeqr::bucket_size            1                       (Unspecified)
system.caches.m_hitLatencyHistSeqr::max_bucket            9                       (Unspecified)
system.caches.m_hitLatencyHistSeqr::samples   8061151718                       (Unspecified)
system.caches.m_hitLatencyHistSeqr::mean            1                       (Unspecified)
system.caches.m_hitLatencyHistSeqr::gmean            1                       (Unspecified)
system.caches.m_hitLatencyHistSeqr       |           0      0.00%      0.00% |  8061151718    100.00%    100.00% |           0      0.00%    100.00% |           0      0.00%    100.00% |           0      0.00%    100.00% |           0      0.00%    100.00% |           0      0.00%    100.00% |           0      0.00%    100.00% |           0      0.00%    100.00% |           0      0.00%    100.00% (Unspecified)
system.caches.m_hitLatencyHistSeqr::total   8061151718                       (Unspecified)
system.caches.m_missLatencyHistSeqr::bucket_size          512                       (Unspecified)
system.caches.m_missLatencyHistSeqr::max_bucket         5119                       (Unspecified)
system.caches.m_missLatencyHistSeqr::samples     43701873                       (Unspecified)
system.caches.m_missLatencyHistSeqr::mean   544.760695                       (Unspecified)
system.caches.m_missLatencyHistSeqr::gmean   495.638896                       (Unspecified)
system.caches.m_missLatencyHistSeqr::stdev   237.474654                       (Unspecified)
system.caches.m_missLatencyHistSeqr      |    26952767     61.67%     61.67% |    15442390     35.34%     97.01% |      249954      0.57%     97.58% |     1001979      2.29%     99.87% |       54160      0.12%    100.00% |         603      0.00%    100.00% |          16      0.00%    100.00% |           4      0.00%    100.00% |           0      0.00%    100.00% |           0      0.00%    100.00% (Unspecified)
system.caches.m_missLatencyHistSeqr::total     43701873                       (Unspecified)
system.caches.delayVCHist.vnet_0::bucket_size           64                       # delay histogram for vnet_0 (Unspecified)
system.caches.delayVCHist.vnet_0::max_bucket          639                       # delay histogram for vnet_0 (Unspecified)
system.caches.delayVCHist.vnet_0::samples    129996503                       # delay histogram for vnet_0 (Unspecified)
system.caches.delayVCHist.vnet_0::mean       0.580870                       # delay histogram for vnet_0 (Unspecified)
system.caches.delayVCHist.vnet_0::stdev      2.083164                       # delay histogram for vnet_0 (Unspecified)
system.caches.delayVCHist.vnet_0         |   129996369    100.00%    100.00% |         127      0.00%    100.00% |           2      0.00%    100.00% |           0      0.00%    100.00% |           0      0.00%    100.00% |           2      0.00%    100.00% |           0      0.00%    100.00% |           2      0.00%    100.00% |           1      0.00%    100.00% |           0      0.00%    100.00% # delay histogram for vnet_0 (Unspecified)
system.caches.delayVCHist.vnet_0::total     129996503                       # delay histogram for vnet_0 (Unspecified)
system.caches.delayVCHist.vnet_1::bucket_size            2                       # delay histogram for vnet_1 (Unspecified)
system.caches.delayVCHist.vnet_1::max_bucket           19                       # delay histogram for vnet_1 (Unspecified)
system.caches.delayVCHist.vnet_1::samples    172642209                       # delay histogram for vnet_1 (Unspecified)
system.caches.delayVCHist.vnet_1::mean       0.000269                       # delay histogram for vnet_1 (Unspecified)
system.caches.delayVCHist.vnet_1::stdev      0.038739                       # delay histogram for vnet_1 (Unspecified)
system.caches.delayVCHist.vnet_1         |   172632269     99.99%     99.99% |        2645      0.00%    100.00% |        2881      0.00%    100.00% |        2861      0.00%    100.00% |        1552      0.00%    100.00% |           1      0.00%    100.00% |           0      0.00%    100.00% |           0      0.00%    100.00% |           0      0.00%    100.00% |           0      0.00%    100.00% # delay histogram for vnet_1 (Unspecified)
system.caches.delayVCHist.vnet_1::total     172642209                       # delay histogram for vnet_1 (Unspecified)
system.caches.delayVCHist.vnet_2::bucket_size            1                       # delay histogram for vnet_2 (Unspecified)
system.caches.delayVCHist.vnet_2::max_bucket            9                       # delay histogram for vnet_2 (Unspecified)
system.caches.delayVCHist.vnet_2::samples       375747                       # delay histogram for vnet_2 (Unspecified)
system.caches.delayVCHist.vnet_2::mean       0.000085                       # delay histogram for vnet_2 (Unspecified)
system.caches.delayVCHist.vnet_2::stdev      0.013051                       # delay histogram for vnet_2 (Unspecified)
system.caches.delayVCHist.vnet_2         |      375731    100.00%    100.00% |           0      0.00%    100.00% |          16      0.00%    100.00% |           0      0.00%    100.00% |           0      0.00%    100.00% |           0      0.00%    100.00% |           0      0.00%    100.00% |           0      0.00%    100.00% |           0      0.00%    100.00% |           0      0.00%    100.00% # delay histogram for vnet_2 (Unspecified)
system.caches.delayVCHist.vnet_2::total        375747                       # delay histogram for vnet_2 (Unspecified)
system.caches.L1Cache_Controller.Load    |   568098806     50.01%     50.01% |   567827140     49.99%    100.00% (Unspecified)
system.caches.L1Cache_Controller.Load::total   1135925946                       (Unspecified)
system.caches.L1Cache_Controller.Ifetch  |18446744072351148032     50.00%     50.00% |18446744072354230272     50.00%    100.00% (Unspecified)
system.caches.L1Cache_Controller.Ifetch::total 36893488144705380352                       (Unspecified)
system.caches.L1Cache_Controller.Store   |   546394209     50.00%     50.00% |   546323165     50.00%    100.00% (Unspecified)
system.caches.L1Cache_Controller.Store::total   1092717374                       (Unspecified)
system.caches.L1Cache_Controller.Inv     |      120148     45.82%     45.82% |      142057     54.18%    100.00% (Unspecified)
system.caches.L1Cache_Controller.Inv::total       262205                       (Unspecified)
system.caches.L1Cache_Controller.L1_Replacement |    21700657     50.06%     50.06% |    21651527     49.94%    100.00% (Unspecified)
system.caches.L1Cache_Controller.L1_Replacement::total     43352184                       (Unspecified)
system.caches.L1Cache_Controller.Fwd_GETX |       33235     49.81%     49.81% |       33483     50.19%    100.00% (Unspecified)
system.caches.L1Cache_Controller.Fwd_GETX::total        66718                       (Unspecified)
system.caches.L1Cache_Controller.Fwd_GETS |       39395     84.13%     84.13% |        7429     15.87%    100.00% (Unspecified)
system.caches.L1Cache_Controller.Fwd_GETS::total        46824                       (Unspecified)
system.caches.L1Cache_Controller.Data    |        2166     99.59%     99.59% |           9      0.41%    100.00% (Unspecified)
system.caches.L1Cache_Controller.Data::total         2175                       (Unspecified)
system.caches.L1Cache_Controller.Data_Exclusive |    16844793     49.96%     49.96% |    16874939     50.04%    100.00% (Unspecified)
system.caches.L1Cache_Controller.Data_Exclusive::total     33719732                       (Unspecified)
system.caches.L1Cache_Controller.DataS_fromL1 |        7429     15.87%     15.87% |       39395     84.13%    100.00% (Unspecified)
system.caches.L1Cache_Controller.DataS_fromL1::total        46824                       (Unspecified)
system.caches.L1Cache_Controller.Data_all_Acks |     4994107     50.45%     50.45% |     4904565     49.55%    100.00% (Unspecified)
system.caches.L1Cache_Controller.Data_all_Acks::total      9898672                       (Unspecified)
system.caches.L1Cache_Controller.Ack     |       33756     97.93%     97.93% |         714      2.07%    100.00% (Unspecified)
system.caches.L1Cache_Controller.Ack::total        34470                       (Unspecified)
system.caches.L1Cache_Controller.Ack_all |       35922     98.03%     98.03% |         723      1.97%    100.00% (Unspecified)
system.caches.L1Cache_Controller.Ack_all::total        36645                       (Unspecified)
system.caches.L1Cache_Controller.WB_Ack  |    21501723     49.98%     49.98% |    21518229     50.02%    100.00% (Unspecified)
system.caches.L1Cache_Controller.WB_Ack::total     43019952                       (Unspecified)
system.caches.L1Cache_Controller.NP.Load |    16873057     49.95%     49.95% |    16908364     50.05%    100.00% (Unspecified)
system.caches.L1Cache_Controller.NP.Load::total     33781421                       (Unspecified)
system.caches.L1Cache_Controller.NP.Ifetch |      139063     67.35%     67.35% |       67408     32.65%    100.00% (Unspecified)
system.caches.L1Cache_Controller.NP.Ifetch::total       206471                       (Unspecified)
system.caches.L1Cache_Controller.NP.Store |     4697241     50.07%     50.07% |     4684454     49.93%    100.00% (Unspecified)
system.caches.L1Cache_Controller.NP.Store::total      9381695                       (Unspecified)
system.caches.L1Cache_Controller.NP.Inv  |        3644     50.14%     50.14% |        3623     49.86%    100.00% (Unspecified)
system.caches.L1Cache_Controller.NP.Inv::total         7267                       (Unspecified)
system.caches.L1Cache_Controller.I.Load  |       31649     33.41%     33.41% |       63070     66.59%    100.00% (Unspecified)
system.caches.L1Cache_Controller.I.Load::total        94719                       (Unspecified)
system.caches.L1Cache_Controller.I.Ifetch |       60385     54.33%     54.33% |       50756     45.67%    100.00% (Unspecified)
system.caches.L1Cache_Controller.I.Ifetch::total       111141                       (Unspecified)
system.caches.L1Cache_Controller.I.Store |       47100     51.22%     51.22% |       44856     48.78%    100.00% (Unspecified)
system.caches.L1Cache_Controller.I.Store::total        91956                       (Unspecified)
system.caches.L1Cache_Controller.I.L1_Replacement |       10175     44.33%     44.33% |       12779     55.67%    100.00% (Unspecified)
system.caches.L1Cache_Controller.I.L1_Replacement::total        22954                       (Unspecified)
system.caches.L1Cache_Controller.S.Load  |   155754731     49.96%     49.96% |   156016910     50.04%    100.00% (Unspecified)
system.caches.L1Cache_Controller.S.Load::total    311771641                       (Unspecified)
system.caches.L1Cache_Controller.S.Ifetch |18446744072350949376     50.00%     50.00% |18446744072354111488     50.00%    100.00% (Unspecified)
system.caches.L1Cache_Controller.S.Ifetch::total 36893488144705060864                       (Unspecified)
system.caches.L1Cache_Controller.S.Store |       33756     97.93%     97.93% |         715      2.07%    100.00% (Unspecified)
system.caches.L1Cache_Controller.S.Store::total        34471                       (Unspecified)
system.caches.L1Cache_Controller.S.Inv   |       75948     43.02%     43.02% |      100586     56.98%    100.00% (Unspecified)
system.caches.L1Cache_Controller.S.Inv::total       176534                       (Unspecified)
system.caches.L1Cache_Controller.S.L1_Replacement |      188759     61.03%     61.03% |      120519     38.97%    100.00% (Unspecified)
system.caches.L1Cache_Controller.S.L1_Replacement::total       309278                       (Unspecified)
system.caches.L1Cache_Controller.E.Load  |   319722047     49.96%     49.96% |   320177108     50.04%    100.00% (Unspecified)
system.caches.L1Cache_Controller.E.Load::total    639899155                       (Unspecified)
system.caches.L1Cache_Controller.E.Store |       24127     53.03%     53.03% |       21368     46.97%    100.00% (Unspecified)
system.caches.L1Cache_Controller.E.Store::total        45495                       (Unspecified)
system.caches.L1Cache_Controller.E.Inv   |       10947     51.40%     51.40% |       10349     48.60%    100.00% (Unspecified)
system.caches.L1Cache_Controller.E.Inv::total        21296                       (Unspecified)
system.caches.L1Cache_Controller.E.L1_Replacement |    16802305     49.96%     49.96% |    16832525     50.04%    100.00% (Unspecified)
system.caches.L1Cache_Controller.E.L1_Replacement::total     33634830                       (Unspecified)
system.caches.L1Cache_Controller.E.Fwd_GETX |           9      2.01%      2.01% |         439     97.99%    100.00% (Unspecified)
system.caches.L1Cache_Controller.E.Fwd_GETX::total          448                       (Unspecified)
system.caches.L1Cache_Controller.E.Fwd_GETS |        3720     36.13%     36.13% |        6575     63.87%    100.00% (Unspecified)
system.caches.L1Cache_Controller.E.Fwd_GETS::total        10295                       (Unspecified)
system.caches.L1Cache_Controller.M.Load  |    75717322     50.35%     50.35% |    74661688     49.65%    100.00% (Unspecified)
system.caches.L1Cache_Controller.M.Load::total    150379010                       (Unspecified)
system.caches.L1Cache_Controller.M.Store |   541591985     50.00%     50.00% |   541571772     50.00%    100.00% (Unspecified)
system.caches.L1Cache_Controller.M.Store::total   1083163757                       (Unspecified)
system.caches.L1Cache_Controller.M.Inv   |       29609     51.85%     51.85% |       27496     48.15%    100.00% (Unspecified)
system.caches.L1Cache_Controller.M.Inv::total        57105                       (Unspecified)
system.caches.L1Cache_Controller.M.L1_Replacement |     4699418     50.07%     50.07% |     4685704     49.93%    100.00% (Unspecified)
system.caches.L1Cache_Controller.M.L1_Replacement::total      9385122                       (Unspecified)
system.caches.L1Cache_Controller.M.Fwd_GETX |       33226     50.14%     50.14% |       33044     49.86%    100.00% (Unspecified)
system.caches.L1Cache_Controller.M.Fwd_GETX::total        66270                       (Unspecified)
system.caches.L1Cache_Controller.M.Fwd_GETS |       35675     97.66%     97.66% |         854      2.34%    100.00% (Unspecified)
system.caches.L1Cache_Controller.M.Fwd_GETS::total        36529                       (Unspecified)
system.caches.L1Cache_Controller.IS.Inv  |           0      0.00%      0.00% |           2    100.00%    100.00% (Unspecified)
system.caches.L1Cache_Controller.IS.Inv::total            2                       (Unspecified)
system.caches.L1Cache_Controller.IS.Data_Exclusive |    16844793     49.96%     49.96% |    16874939     50.04%    100.00% (Unspecified)
system.caches.L1Cache_Controller.IS.Data_Exclusive::total     33719732                       (Unspecified)
system.caches.L1Cache_Controller.IS.DataS_fromL1 |        7429     15.87%     15.87% |       39393     84.13%    100.00% (Unspecified)
system.caches.L1Cache_Controller.IS.DataS_fromL1::total        46822                       (Unspecified)
system.caches.L1Cache_Controller.IS.Data_all_Acks |      251932     58.97%     58.97% |      175264     41.03%    100.00% (Unspecified)
system.caches.L1Cache_Controller.IS.Data_all_Acks::total       427196                       (Unspecified)
system.caches.L1Cache_Controller.IM.Data |        2166     99.59%     99.59% |           9      0.41%    100.00% (Unspecified)
system.caches.L1Cache_Controller.IM.Data::total         2175                       (Unspecified)
system.caches.L1Cache_Controller.IM.Data_all_Acks |     4742175     50.07%     50.07% |     4729301     49.93%    100.00% (Unspecified)
system.caches.L1Cache_Controller.IM.Data_all_Acks::total      9471476                       (Unspecified)
system.caches.L1Cache_Controller.SM.Inv  |           0      0.00%      0.00% |           1    100.00%    100.00% (Unspecified)
system.caches.L1Cache_Controller.SM.Inv::total            1                       (Unspecified)
system.caches.L1Cache_Controller.SM.Ack  |       33756     97.93%     97.93% |         714      2.07%    100.00% (Unspecified)
system.caches.L1Cache_Controller.SM.Ack::total        34470                       (Unspecified)
system.caches.L1Cache_Controller.SM.Ack_all |       35922     98.03%     98.03% |         723      1.97%    100.00% (Unspecified)
system.caches.L1Cache_Controller.SM.Ack_all::total        36645                       (Unspecified)
system.caches.L1Cache_Controller.IS_I.DataS_fromL1 |           0      0.00%      0.00% |           2    100.00%    100.00% (Unspecified)
system.caches.L1Cache_Controller.IS_I.DataS_fromL1::total            2                       (Unspecified)
system.caches.L1Cache_Controller.M_I.WB_Ack |    21501723     49.98%     49.98% |    21518229     50.02%    100.00% (Unspecified)
system.caches.L1Cache_Controller.M_I.WB_Ack::total     43019952                       (Unspecified)
system.caches.Directory_Controller.Fetch     42871214      0.00%      0.00% (Unspecified)
system.caches.Directory_Controller.Data       9108733      0.00%      0.00% (Unspecified)
system.caches.Directory_Controller.Memory_Data     42871213      0.00%      0.00% (Unspecified)
system.caches.Directory_Controller.Memory_Ack      9108733      0.00%      0.00% (Unspecified)
system.caches.Directory_Controller.CleanReplacement     33631409      0.00%      0.00% (Unspecified)
system.caches.Directory_Controller.I.Fetch     42871214      0.00%      0.00% (Unspecified)
system.caches.Directory_Controller.M.Data      9108733      0.00%      0.00% (Unspecified)
system.caches.Directory_Controller.M.CleanReplacement     33631409      0.00%      0.00% (Unspecified)
system.caches.Directory_Controller.IM.Memory_Data     42871213      0.00%      0.00% (Unspecified)
system.caches.Directory_Controller.MI.Memory_Ack      9108733      0.00%      0.00% (Unspecified)
system.caches.L2Cache_Controller.L1_GET_INSTR |       17036      5.36%      5.36% |       51750     16.29%     21.65% |       46141     14.52%     36.17% |       13164      4.14%     40.31% |       32937     10.36%     50.67% |       46475     14.63%     65.30% |       54424     17.13%     82.43% |       55849     17.57%    100.00% (Unspecified)
system.caches.L2Cache_Controller.L1_GET_INSTR::total       317776                       (Unspecified)
system.caches.L2Cache_Controller.L1_GETS |     4254154     12.55%     12.55% |     4235713     12.50%     25.05% |     4230064     12.48%     37.53% |     4224853     12.47%     50.00% |     4232084     12.49%     62.49% |     4223802     12.46%     74.95% |     4256444     12.56%     87.51% |     4232643     12.49%    100.00% (Unspecified)
system.caches.L2Cache_Controller.L1_GETS::total     33889757                       (Unspecified)
system.caches.L2Cache_Controller.L1_GETX |     1181730     12.47%     12.47% |     1175386     12.41%     24.88% |     1170851     12.36%     37.24% |     1239299     13.08%     50.32% |     1173607     12.39%     62.71% |     1181786     12.47%     75.18% |     1175202     12.40%     87.59% |     1176004     12.41%    100.00% (Unspecified)
system.caches.L2Cache_Controller.L1_GETX::total      9473865                       (Unspecified)
system.caches.L2Cache_Controller.L1_UPGRADE |        7541     16.46%     16.46% |        4139      9.03%     25.50% |          17      0.04%     25.53% |        1027      2.24%     27.77% |          77      0.17%     27.94% |           5      0.01%     27.95% |       32908     71.83%     99.79% |          98      0.21%    100.00% (Unspecified)
system.caches.L2Cache_Controller.L1_UPGRADE::total        45812                       (Unspecified)
system.caches.L2Cache_Controller.L1_PUTX |     5381511     12.51%     12.51% |     5380452     12.51%     25.02% |     5371224     12.49%     37.50% |     5375050     12.49%     50.00% |     5377401     12.50%     62.50% |     5381292     12.51%     75.00% |     5377004     12.50%     87.50% |     5376018     12.50%    100.00% (Unspecified)
system.caches.L2Cache_Controller.L1_PUTX::total     43019952                       (Unspecified)
system.caches.L2Cache_Controller.L2_Replacement |     1132185     12.50%     12.50% |     1131980     12.50%     25.00% |     1131974     12.50%     37.50% |     1131949     12.50%     50.00% |     1131894     12.50%     62.50% |     1132094     12.50%     75.00% |     1132191     12.50%     87.50% |     1131974     12.50%    100.00% (Unspecified)
system.caches.L2Cache_Controller.L2_Replacement::total      9056241                       (Unspecified)
system.caches.L2Cache_Controller.L2_Replacement_clean |     4212408     12.51%     12.51% |     4211863     12.50%     25.01% |     4208674     12.49%     37.50% |     4208663     12.49%     50.00% |     4210512     12.50%     62.50% |     4211688     12.50%     75.00% |     4208698     12.49%     87.50% |     4211395     12.50%    100.00% (Unspecified)
system.caches.L2Cache_Controller.L2_Replacement_clean::total     33683901                       (Unspecified)
system.caches.L2Cache_Controller.Mem_Data |     5360977     12.50%     12.50% |     5360227     12.50%     25.01% |     5357032     12.50%     37.50% |     5356996     12.50%     50.00% |     5358790     12.50%     62.50% |     5360166     12.50%     75.00% |     5357272     12.50%     87.50% |     5359753     12.50%    100.00% (Unspecified)
system.caches.L2Cache_Controller.Mem_Data::total     42871213                       (Unspecified)
system.caches.L2Cache_Controller.Mem_Ack |     5344593     12.50%     12.50% |     5343843     12.50%     25.01% |     5340648     12.50%     37.50% |     5340612     12.50%     50.00% |     5342406     12.50%     62.50% |     5343782     12.50%     75.00% |     5340889     12.50%     87.50% |     5343369     12.50%    100.00% (Unspecified)
system.caches.L2Cache_Controller.Mem_Ack::total     42740142                       (Unspecified)
system.caches.L2Cache_Controller.WB_Data |       16018     17.11%     17.11% |       10193     10.89%     27.99% |        5602      5.98%     33.98% |        8458      9.03%     43.01% |        6820      7.28%     50.29% |        8775      9.37%     59.66% |       29447     31.45%     91.11% |        8321      8.89%    100.00% (Unspecified)
system.caches.L2Cache_Controller.WB_Data::total        93634                       (Unspecified)
system.caches.L2Cache_Controller.WB_Data_clean |        1879     18.25%     18.25% |        1472     14.30%     32.55% |        1623     15.76%     48.31% |         896      8.70%     57.02% |        1491     14.48%     71.50% |         791      7.68%     79.18% |         871      8.46%     87.64% |        1272     12.36%    100.00% (Unspecified)
system.caches.L2Cache_Controller.WB_Data_clean::total        10295                       (Unspecified)
system.caches.L2Cache_Controller.Ack     |        9672     15.30%     15.30% |        8184     12.95%     28.25% |        7774     12.30%     40.54% |        6385     10.10%     50.64% |        8367     13.24%     63.88% |        8149     12.89%     76.77% |        6914     10.94%     87.71% |        7770     12.29%    100.00% (Unspecified)
system.caches.L2Cache_Controller.Ack::total        63215                       (Unspecified)
system.caches.L2Cache_Controller.Ack_all |       14976     14.23%     14.23% |       14958     14.21%     28.44% |       12653     12.02%     40.47% |       11238     10.68%     51.15% |       13704     13.02%     64.17% |       12899     12.26%     76.42% |       11577     11.00%     87.42% |       13235     12.58%    100.00% (Unspecified)
system.caches.L2Cache_Controller.Ack_all::total       105240                       (Unspecified)
system.caches.L2Cache_Controller.Unblock |       10696     22.84%     22.84% |        5281     11.28%     34.12% |        1671      3.57%     37.69% |        1955      4.18%     41.87% |        1613      3.44%     45.31% |         828      1.77%     47.08% |       23382     49.94%     97.01% |        1398      2.99%    100.00% (Unspecified)
system.caches.L2Cache_Controller.Unblock::total        46824                       (Unspecified)
system.caches.L2Cache_Controller.Exclusive_Unblock |     5404171     12.50%     12.50% |     5397855     12.49%     24.99% |     5382785     12.45%     37.44% |     5454423     12.62%     50.06% |     5390920     12.47%     62.53% |     5396088     12.48%     75.01% |     5411965     12.52%     87.53% |     5389646     12.47%    100.00% (Unspecified)
system.caches.L2Cache_Controller.Exclusive_Unblock::total     43227853                       (Unspecified)
system.caches.L2Cache_Controller.NP.L1_GET_INSTR |        9667     13.83%     13.83% |        9638     13.79%     27.62% |        7998     11.44%     39.06% |        7565     10.82%     49.89% |        8683     12.42%     62.31% |        9034     12.93%     75.24% |        7939     11.36%     86.59% |        9370     13.41%    100.00% (Unspecified)
system.caches.L2Cache_Controller.NP.L1_GET_INSTR::total        69894                       (Unspecified)
system.caches.L2Cache_Controller.NP.L1_GETS |     4207168     12.50%     12.50% |     4206875     12.50%     25.00% |     4206184     12.50%     37.50% |     4205668     12.50%     50.00% |     4206515     12.50%     62.50% |     4205979     12.50%     75.00% |     4205772     12.50%     87.50% |     4206272     12.50%    100.00% (Unspecified)
system.caches.L2Cache_Controller.NP.L1_GETS::total     33650433                       (Unspecified)
system.caches.L2Cache_Controller.NP.L1_GETX |     1144142     12.50%     12.50% |     1143714     12.50%     25.00% |     1142850     12.49%     37.49% |     1143763     12.50%     49.99% |     1143592     12.50%     62.49% |     1145153     12.51%     75.00% |     1143562     12.50%     87.50% |     1144111     12.50%    100.00% (Unspecified)
system.caches.L2Cache_Controller.NP.L1_GETX::total      9150887                       (Unspecified)
system.caches.L2Cache_Controller.SS.L1_GET_INSTR |        4255      1.87%      1.87% |       39089     17.21%     19.09% |       35740     15.74%     34.83% |        3141      1.38%     36.21% |       21587      9.51%     45.72% |       34750     15.30%     61.02% |       44373     19.54%     80.56% |       44145     19.44%    100.00% (Unspecified)
system.caches.L2Cache_Controller.SS.L1_GET_INSTR::total       227080                       (Unspecified)
system.caches.L2Cache_Controller.SS.L1_GETS |       26286     25.97%     25.97% |       11059     10.93%     36.89% |       15036     14.85%     51.75% |        7993      7.90%     59.64% |       12542     12.39%     72.03% |        7638      7.55%     79.58% |        4155      4.10%     83.68% |       16517     16.32%    100.00% (Unspecified)
system.caches.L2Cache_Controller.SS.L1_GETS::total       101226                       (Unspecified)
system.caches.L2Cache_Controller.SS.L1_GETX |        1252     57.56%     57.56% |           0      0.00%     57.56% |           0      0.00%     57.56% |           0      0.00%     57.56% |          12      0.55%     58.11% |           0      0.00%     58.11% |         911     41.89%    100.00% |           0      0.00%    100.00% (Unspecified)
system.caches.L2Cache_Controller.SS.L1_GETX::total         2175                       (Unspecified)
system.caches.L2Cache_Controller.SS.L1_UPGRADE |        7540     21.87%     21.87% |        4138     12.00%     33.88% |          17      0.05%     33.93% |        1027      2.98%     36.91% |          77      0.22%     37.13% |           5      0.01%     37.15% |       21568     62.57%     99.72% |          98      0.28%    100.00% (Unspecified)
system.caches.L2Cache_Controller.SS.L1_UPGRADE::total        34470                       (Unspecified)
system.caches.L2Cache_Controller.SS.L2_Replacement |          45     12.10%     12.10% |          48     12.90%     25.00% |          50     13.44%     38.44% |          52     13.98%     52.42% |          44     11.83%     64.25% |          42     11.29%     75.54% |          46     12.37%     87.90% |          45     12.10%    100.00% (Unspecified)
system.caches.L2Cache_Controller.SS.L2_Replacement::total          372                       (Unspecified)
system.caches.L2Cache_Controller.SS.L2_Replacement_clean |       12572     15.04%     15.04% |       11188     13.39%     28.43% |       10261     12.28%     40.71% |        8778     10.50%     51.21% |       10448     12.50%     63.71% |       10272     12.29%     76.01% |        8901     10.65%     86.66% |       11152     13.34%    100.00% (Unspecified)
system.caches.L2Cache_Controller.SS.L2_Replacement_clean::total        83572                       (Unspecified)
system.caches.L2Cache_Controller.M.L1_GETS |        8855     12.05%     12.05% |       11973     16.29%     28.35% |        6453      8.78%     37.13% |        8841     12.03%     49.16% |       11064     15.06%     64.22% |        8844     12.04%     76.25% |        9576     13.03%     89.29% |        7872     10.71%    100.00% (Unspecified)
system.caches.L2Cache_Controller.M.L1_GETS::total        73478                       (Unspecified)
system.caches.L2Cache_Controller.M.L1_GETX |       35875     14.13%     14.13% |       31628     12.46%     26.59% |       27977     11.02%     37.61% |       29885     11.77%     49.38% |       29981     11.81%     61.19% |       35961     14.17%     75.36% |       30707     12.10%     87.45% |       31858     12.55%    100.00% (Unspecified)
system.caches.L2Cache_Controller.M.L1_GETX::total       253872                       (Unspecified)
system.caches.L2Cache_Controller.M.L2_Replacement |     1131473     12.50%     12.50% |     1131460     12.50%     25.00% |     1131509     12.50%     37.50% |     1131329     12.50%     50.00% |     1131377     12.50%     62.50% |     1131335     12.50%     75.00% |     1131503     12.50%     87.50% |     1131217     12.50%    100.00% (Unspecified)
system.caches.L2Cache_Controller.M.L2_Replacement::total      9051203                       (Unspecified)
system.caches.L2Cache_Controller.M.L2_Replacement_clean |     4190943     12.50%     12.50% |     4191041     12.50%     25.00% |     4190932     12.50%     37.50% |     4190646     12.50%     50.00% |     4190627     12.50%     62.50% |     4190810     12.50%     75.00% |     4190873     12.50%     87.50% |     4190722     12.50%    100.00% (Unspecified)
system.caches.L2Cache_Controller.M.L2_Replacement_clean::total     33526594                       (Unspecified)
system.caches.L2Cache_Controller.MT.L1_GETS |       10696     22.84%     22.84% |        5281     11.28%     34.12% |        1671      3.57%     37.69% |        1955      4.18%     41.87% |        1613      3.44%     45.31% |         828      1.77%     47.08% |       23382     49.94%     97.01% |        1398      2.99%    100.00% (Unspecified)
system.caches.L2Cache_Controller.MT.L1_GETS::total        46824                       (Unspecified)
system.caches.L2Cache_Controller.MT.L1_GETX |         436      0.65%      0.65% |          21      0.03%      0.68% |           5      0.01%      0.69% |       65604     98.33%     99.02% |           1      0.00%     99.02% |         640      0.96%     99.98% |           6      0.01%     99.99% |           5      0.01%    100.00% (Unspecified)
system.caches.L2Cache_Controller.MT.L1_GETX::total        66718                       (Unspecified)
system.caches.L2Cache_Controller.MT.L1_PUTX |     5381511     12.51%     12.51% |     5380452     12.51%     25.02% |     5371224     12.49%     37.50% |     5375050     12.49%     50.00% |     5377401     12.50%     62.50% |     5381292     12.51%     75.00% |     5377004     12.50%     87.50% |     5376018     12.50%    100.00% (Unspecified)
system.caches.L2Cache_Controller.MT.L1_PUTX::total     43019952                       (Unspecified)
system.caches.L2Cache_Controller.MT.L2_Replacement |         667     14.29%     14.29% |         472     10.12%     24.41% |         415      8.89%     33.30% |         568     12.17%     45.48% |         473     10.14%     55.62% |         717     15.37%     70.98% |         642     13.76%     84.74% |         712     15.26%    100.00% (Unspecified)
system.caches.L2Cache_Controller.MT.L2_Replacement::total         4666                       (Unspecified)
system.caches.L2Cache_Controller.MT.L2_Replacement_clean |        8893     12.06%     12.06% |        9634     13.07%     25.13% |        7481     10.15%     35.27% |        9239     12.53%     47.80% |        9437     12.80%     60.60% |       10606     14.38%     74.98% |        8924     12.10%     87.09% |        9521     12.91%    100.00% (Unspecified)
system.caches.L2Cache_Controller.MT.L2_Replacement_clean::total        73735                       (Unspecified)
system.caches.L2Cache_Controller.M_I.L1_GET_INSTR |           0      0.00%      0.00% |           1      0.61%      0.61% |           0      0.00%      0.61% |          36     21.95%     22.56% |          14      8.54%     31.10% |          56     34.15%     65.24% |           0      0.00%     65.24% |          57     34.76%    100.00% (Unspecified)
system.caches.L2Cache_Controller.M_I.L1_GET_INSTR::total          164                       (Unspecified)
system.caches.L2Cache_Controller.M_I.L1_GETS |          37     22.29%     22.29% |          22     13.25%     35.54% |          16      9.64%     45.18% |          25     15.06%     60.24% |          18     10.84%     71.08% |          18     10.84%     81.93% |          19     11.45%     93.37% |          11      6.63%    100.00% (Unspecified)
system.caches.L2Cache_Controller.M_I.L1_GETS::total          166                       (Unspecified)
system.caches.L2Cache_Controller.M_I.L1_GETX |          25     12.95%     12.95% |          21     10.88%     23.83% |          19      9.84%     33.68% |          29     15.03%     48.70% |          21     10.88%     59.59% |          32     16.58%     76.17% |          16      8.29%     84.46% |          30     15.54%    100.00% (Unspecified)
system.caches.L2Cache_Controller.M_I.L1_GETX::total          193                       (Unspecified)
system.caches.L2Cache_Controller.M_I.Mem_Ack |     5344593     12.50%     12.50% |     5343843     12.50%     25.01% |     5340648     12.50%     37.50% |     5340612     12.50%     50.00% |     5342406     12.50%     62.50% |     5343782     12.50%     75.00% |     5340889     12.50%     87.50% |     5343369     12.50%    100.00% (Unspecified)
system.caches.L2Cache_Controller.M_I.Mem_Ack::total     42740142                       (Unspecified)
system.caches.L2Cache_Controller.MT_I.WB_Data |         662     14.35%     14.35% |         467     10.12%     24.47% |         414      8.97%     33.45% |         566     12.27%     45.72% |         466     10.10%     55.82% |         709     15.37%     71.19% |         623     13.51%     84.70% |         706     15.30%    100.00% (Unspecified)
system.caches.L2Cache_Controller.MT_I.WB_Data::total         4613                       (Unspecified)
system.caches.L2Cache_Controller.MT_I.Ack_all |           5      9.43%      9.43% |           5      9.43%     18.87% |           1      1.89%     20.75% |           2      3.77%     24.53% |           7     13.21%     37.74% |           8     15.09%     52.83% |          19     35.85%     88.68% |           6     11.32%    100.00% (Unspecified)
system.caches.L2Cache_Controller.MT_I.Ack_all::total           53                       (Unspecified)
system.caches.L2Cache_Controller.MCT_I.WB_Data |        6539     12.46%     12.46% |        5917     11.27%     23.73% |        5140      9.79%     33.52% |        6833     13.02%     46.54% |        6232     11.87%     58.41% |        8029     15.30%     73.71% |        6313     12.03%     85.73% |        7489     14.27%    100.00% (Unspecified)
system.caches.L2Cache_Controller.MCT_I.WB_Data::total        52492                       (Unspecified)
system.caches.L2Cache_Controller.MCT_I.Ack_all |        2354     11.08%     11.08% |        3717     17.50%     28.58% |        2341     11.02%     39.60% |        2406     11.33%     50.93% |        3205     15.09%     66.01% |        2577     12.13%     78.14% |        2611     12.29%     90.43% |        2032      9.57%    100.00% (Unspecified)
system.caches.L2Cache_Controller.MCT_I.Ack_all::total        21243                       (Unspecified)
system.caches.L2Cache_Controller.I_I.Ack |        9627     15.32%     15.32% |        8136     12.95%     28.27% |        7724     12.29%     40.56% |        6333     10.08%     50.63% |        8323     13.24%     63.88% |        8107     12.90%     76.78% |        6868     10.93%     87.71% |        7725     12.29%    100.00% (Unspecified)
system.caches.L2Cache_Controller.I_I.Ack::total        62843                       (Unspecified)
system.caches.L2Cache_Controller.I_I.Ack_all |       12572     15.04%     15.04% |       11188     13.39%     28.43% |       10261     12.28%     40.71% |        8778     10.50%     51.21% |       10448     12.50%     63.71% |       10272     12.29%     76.01% |        8901     10.65%     86.66% |       11152     13.34%    100.00% (Unspecified)
system.caches.L2Cache_Controller.I_I.Ack_all::total        83572                       (Unspecified)
system.caches.L2Cache_Controller.S_I.Ack |          45     12.10%     12.10% |          48     12.90%     25.00% |          50     13.44%     38.44% |          52     13.98%     52.42% |          44     11.83%     64.25% |          42     11.29%     75.54% |          46     12.37%     87.90% |          45     12.10%    100.00% (Unspecified)
system.caches.L2Cache_Controller.S_I.Ack::total          372                       (Unspecified)
system.caches.L2Cache_Controller.S_I.Ack_all |          45     12.10%     12.10% |          48     12.90%     25.00% |          50     13.44%     38.44% |          52     13.98%     52.42% |          44     11.83%     64.25% |          42     11.29%     75.54% |          46     12.37%     87.90% |          45     12.10%    100.00% (Unspecified)
system.caches.L2Cache_Controller.S_I.Ack_all::total          372                       (Unspecified)
system.caches.L2Cache_Controller.ISS.L1_GETS |        1097     26.25%     26.25% |         494     11.82%     38.07% |         701     16.77%     54.85% |         365      8.73%     63.58% |         322      7.71%     71.28% |         494     11.82%     83.11% |         136      3.25%     86.36% |         570     13.64%    100.00% (Unspecified)
system.caches.L2Cache_Controller.ISS.L1_GETS::total         4179                       (Unspecified)
system.caches.L2Cache_Controller.ISS.Mem_Data |     4206071     12.50%     12.50% |     4206381     12.50%     25.00% |     4205483     12.50%     37.50% |     4205303     12.50%     50.00% |     4206193     12.50%     62.50% |     4205485     12.50%     75.00% |     4205636     12.50%     87.50% |     4205702     12.50%    100.00% (Unspecified)
system.caches.L2Cache_Controller.ISS.Mem_Data::total     33646254                       (Unspecified)
system.caches.L2Cache_Controller.IS.L1_GET_INSTR |        3114     15.09%     15.09% |        3022     14.64%     29.73% |        2403     11.64%     41.38% |        2422     11.74%     53.11% |        2653     12.85%     65.97% |        2635     12.77%     78.73% |        2112     10.23%     88.97% |        2277     11.03%    100.00% (Unspecified)
system.caches.L2Cache_Controller.IS.L1_GET_INSTR::total        20638                       (Unspecified)
system.caches.L2Cache_Controller.IS.Mem_Data |       10764     14.53%     14.53% |       10132     13.68%     28.21% |        8699     11.74%     39.95% |        7930     10.71%     50.66% |        9005     12.16%     62.82% |        9528     12.86%     75.68% |        8075     10.90%     86.58% |        9940     13.42%    100.00% (Unspecified)
system.caches.L2Cache_Controller.IS.Mem_Data::total        74073                       (Unspecified)
system.caches.L2Cache_Controller.IM.L1_GETX |           0      0.00%      0.00% |           2     22.22%     22.22% |           0      0.00%     22.22% |           7     77.78%    100.00% |           0      0.00%    100.00% |           0      0.00%    100.00% |           0      0.00%    100.00% |           0      0.00%    100.00% (Unspecified)
system.caches.L2Cache_Controller.IM.L1_GETX::total            9                       (Unspecified)
system.caches.L2Cache_Controller.IM.Mem_Data |     1144142     12.50%     12.50% |     1143714     12.50%     25.00% |     1142850     12.49%     37.49% |     1143763     12.50%     49.99% |     1143592     12.50%     62.49% |     1145153     12.51%     75.00% |     1143561     12.50%     87.50% |     1144111     12.50%    100.00% (Unspecified)
system.caches.L2Cache_Controller.IM.Mem_Data::total      9150886                       (Unspecified)
system.caches.L2Cache_Controller.SS_MB.L1_GETS |           5      0.04%      0.04% |           0      0.00%      0.04% |           0      0.00%      0.04% |           0      0.00%      0.04% |           0      0.00%      0.04% |           0      0.00%      0.04% |       13403     99.96%    100.00% |           0      0.00%    100.00% (Unspecified)
system.caches.L2Cache_Controller.SS_MB.L1_GETS::total        13408                       (Unspecified)
system.caches.L2Cache_Controller.SS_MB.L1_UPGRADE |           1    100.00%    100.00% |           0      0.00%    100.00% |           0      0.00%    100.00% |           0      0.00%    100.00% |           0      0.00%    100.00% |           0      0.00%    100.00% |           0      0.00%    100.00% |           0      0.00%    100.00% (Unspecified)
system.caches.L2Cache_Controller.SS_MB.L1_UPGRADE::total            1                       (Unspecified)
system.caches.L2Cache_Controller.SS_MB.Exclusive_Unblock |        8792     23.99%     23.99% |        4138     11.29%     35.28% |          17      0.05%     35.33% |        1027      2.80%     38.13% |          89      0.24%     38.38% |           5      0.01%     38.39% |       22479     61.34%     99.73% |          98      0.27%    100.00% (Unspecified)
system.caches.L2Cache_Controller.SS_MB.Exclusive_Unblock::total        36645                       (Unspecified)
system.caches.L2Cache_Controller.MT_MB.L1_GETS |          10     23.26%     23.26% |           9     20.93%     44.19% |           3      6.98%     51.16% |           6     13.95%     65.12% |          10     23.26%     88.37% |           1      2.33%     90.70% |           1      2.33%     93.02% |           3      6.98%    100.00% (Unspecified)
system.caches.L2Cache_Controller.MT_MB.L1_GETS::total           43                       (Unspecified)
system.caches.L2Cache_Controller.MT_MB.L1_GETX |           0      0.00%      0.00% |           0      0.00%      0.00% |           0      0.00%      0.00% |          11    100.00%    100.00% |           0      0.00%    100.00% |           0      0.00%    100.00% |           0      0.00%    100.00% |           0      0.00%    100.00% (Unspecified)
system.caches.L2Cache_Controller.MT_MB.L1_GETX::total           11                       (Unspecified)
system.caches.L2Cache_Controller.MT_MB.Exclusive_Unblock |     5395379     12.49%     12.49% |     5393717     12.49%     24.98% |     5382768     12.46%     37.44% |     5453396     12.63%     50.07% |     5390831     12.48%     62.55% |     5396083     12.49%     75.04% |     5389486     12.48%     87.52% |     5389548     12.48%    100.00% (Unspecified)
system.caches.L2Cache_Controller.MT_MB.Exclusive_Unblock::total     43191208                       (Unspecified)
system.caches.L2Cache_Controller.MT_IIB.WB_Data |        8817     24.14%     24.14% |        3809     10.43%     34.56% |          48      0.13%     34.70% |        1059      2.90%     37.59% |         122      0.33%     37.93% |          37      0.10%     38.03% |       22511     61.63%     99.66% |         126      0.34%    100.00% (Unspecified)
system.caches.L2Cache_Controller.MT_IIB.WB_Data::total        36529                       (Unspecified)
system.caches.L2Cache_Controller.MT_IIB.WB_Data_clean |        1879     18.25%     18.25% |        1472     14.30%     32.55% |        1623     15.76%     48.31% |         896      8.70%     57.02% |        1491     14.48%     71.50% |         791      7.68%     79.18% |         871      8.46%     87.64% |        1272     12.36%    100.00% (Unspecified)
system.caches.L2Cache_Controller.MT_IIB.WB_Data_clean::total        10295                       (Unspecified)
system.caches.L2Cache_Controller.MT_SB.L1_UPGRADE |           0      0.00%      0.00% |           1      0.01%      0.01% |           0      0.00%      0.01% |           0      0.00%      0.01% |           0      0.00%      0.01% |           0      0.00%      0.01% |       11340     99.99%    100.00% |           0      0.00%    100.00% (Unspecified)
system.caches.L2Cache_Controller.MT_SB.L1_UPGRADE::total        11341                       (Unspecified)
system.caches.L2Cache_Controller.MT_SB.Unblock |       10696     22.84%     22.84% |        5281     11.28%     34.12% |        1671      3.57%     37.69% |        1955      4.18%     41.87% |        1613      3.44%     45.31% |         828      1.77%     47.08% |       23382     49.94%     97.01% |        1398      2.99%    100.00% (Unspecified)
system.caches.L2Cache_Controller.MT_SB.Unblock::total        46824                       (Unspecified)
system.caches.RequestType.LD.latency_hist_seqr::bucket_size          512                       (Unspecified)
system.caches.RequestType.LD.latency_hist_seqr::max_bucket         5119                       (Unspecified)
system.caches.RequestType.LD.latency_hist_seqr::samples   1135925946                       (Unspecified)
system.caches.RequestType.LD.latency_hist_seqr::mean    16.501086                       (Unspecified)
system.caches.RequestType.LD.latency_hist_seqr::gmean     1.202903                       (Unspecified)
system.caches.RequestType.LD.latency_hist_seqr::stdev    96.572492                       (Unspecified)
system.caches.RequestType.LD.latency_hist_seqr |  1127899200     99.29%     99.29% |     6989014      0.62%     99.91% |      208924      0.02%     99.93% |      800233      0.07%    100.00% |       28147      0.00%    100.00% |         416      0.00%    100.00% |           9      0.00%    100.00% |           3      0.00%    100.00% |           0      0.00%    100.00% |           0      0.00%    100.00% (Unspecified)
system.caches.RequestType.LD.latency_hist_seqr::total   1135925946                       (Unspecified)
system.caches.RequestType.LD.hit_latency_hist_seqr::bucket_size            1                       (Unspecified)
system.caches.RequestType.LD.hit_latency_hist_seqr::max_bucket            9                       (Unspecified)
system.caches.RequestType.LD.hit_latency_hist_seqr::samples   1102049806                       (Unspecified)
system.caches.RequestType.LD.hit_latency_hist_seqr::mean            1                       (Unspecified)
system.caches.RequestType.LD.hit_latency_hist_seqr::gmean            1                       (Unspecified)
[...]
system.timingCpu0.exec_context.thread_0.statExecutedInstType::SimdSha1Hash2            0      0.00%     75.84% # Class of executed instruction. (Count)
system.timingCpu0.exec_context.thread_0.statExecutedInstType::SimdSha256Hash            0      0.00%     75.84% # Class of executed instruction. (Count)
system.timingCpu0.exec_context.thread_0.statExecutedInstType::SimdSha256Hash2            0      0.00%     75.84% # Class of executed instruction. (Count)
system.timingCpu0.exec_context.thread_0.statExecutedInstType::SimdShaSigma2            0      0.00%     75.84% # Class of executed instruction. (Count)
system.timingCpu0.exec_context.thread_0.statExecutedInstType::SimdShaSigma3            0      0.00%     75.84% # Class of executed instruction. (Count)
system.timingCpu0.exec_context.thread_0.statExecutedInstType::SimdPredAlu            0      0.00%     75.84% # Class of executed instruction. (Count)
system.timingCpu0.exec_context.thread_0.statExecutedInstType::MemRead    612950547     15.44%     91.28% # Class of executed instruction. (Count)
system.timingCpu0.exec_context.thread_0.statExecutedInstType::MemWrite    344164908      8.67%     99.95% # Class of executed instruction. (Count)
system.timingCpu0.exec_context.thread_0.statExecutedInstType::FloatMemRead          408      0.00%     99.95% # Class of executed instruction. (Count)
system.timingCpu0.exec_context.thread_0.statExecutedInstType::FloatMemWrite      2102004      0.05%    100.00% # Class of executed instruction. (Count)
system.timingCpu0.exec_context.thread_0.statExecutedInstType::IprAccess            0      0.00%    100.00% # Class of executed instruction. (Count)
system.timingCpu0.exec_context.thread_0.statExecutedInstType::InstPrefetch            0      0.00%    100.00% # Class of executed instruction. (Count)
system.timingCpu0.exec_context.thread_0.statExecutedInstType::total   3970619879                       # Class of executed instruction. (Count)
system.timingCpu0.mmu.dtb.rdAccesses        613085811                       # TLB accesses on read requests (Count)
system.timingCpu0.mmu.dtb.wrAccesses        397840954                       # TLB accesses on write requests (Count)
system.timingCpu0.mmu.dtb.rdMisses             134856                       # TLB misses on read requests (Count)
system.timingCpu0.mmu.dtb.wrMisses           51574054                       # TLB misses on write requests (Count)
system.timingCpu0.mmu.dtb.walker.power_state.pwrStateResidencyTicks::UNDEFINED 31035545185250                       # Cumulative time (in ticks) in various power states (Tick)
system.timingCpu0.mmu.itb.rdAccesses                0                       # TLB accesses on read requests (Count)
system.timingCpu0.mmu.itb.wrAccesses       2936571325                       # TLB accesses on write requests (Count)
system.timingCpu0.mmu.itb.rdMisses                  0                       # TLB misses on read requests (Count)
system.timingCpu0.mmu.itb.wrMisses               6619                       # TLB misses on write requests (Count)
system.timingCpu0.mmu.itb.walker.power_state.pwrStateResidencyTicks::UNDEFINED 31035545185250                       # Cumulative time (in ticks) in various power states (Tick)
system.timingCpu0.power_state.numTransitions           14                       # Number of power state transitions (Count)
system.timingCpu0.power_state.ticksClkGated::samples            7                       # Distribution of time spent in the clock gated state (Tick)
system.timingCpu0.power_state.ticksClkGated::mean 808422571.428571                       # Distribution of time spent in the clock gated state (Tick)
system.timingCpu0.power_state.ticksClkGated::stdev 356719953.927731                       # Distribution of time spent in the clock gated state (Tick)
system.timingCpu0.power_state.ticksClkGated::1000-5e+10            7    100.00%    100.00% # Distribution of time spent in the clock gated state (Tick)
system.timingCpu0.power_state.ticksClkGated::min_value     65751250                       # Distribution of time spent in the clock gated state (Tick)
system.timingCpu0.power_state.ticksClkGated::max_value    997902750                       # Distribution of time spent in the clock gated state (Tick)
system.timingCpu0.power_state.ticksClkGated::total            7                       # Distribution of time spent in the clock gated state (Tick)
system.timingCpu0.power_state.pwrStateResidencyTicks::ON 4018951978500                       # Cumulative time (in ticks) in various power states (Tick)
system.timingCpu0.power_state.pwrStateResidencyTicks::CLK_GATED   5658958000                       # Cumulative time (in ticks) in various power states (Tick)
system.timingCpu0.power_state.pwrStateResidencyTicks::OFF 27010934248750                       # Cumulative time (in ticks) in various power states (Tick)
system.timingCpu0.thread_0.numInsts                 0                       # Number of Instructions committed (Count)
system.timingCpu0.thread_0.numOps                   0                       # Number of Ops committed (Count)
system.timingCpu0.thread_0.numMemRefs               0                       # Number of Memory References (Count)
system.timingCpu1.numCycles               19999999564                       # Number of cpu cycles simulated (Cycle)
system.timingCpu1.numWorkItemsStarted               0                       # Number of work items this cpu started (Count)
system.timingCpu1.numWorkItemsCompleted             0                       # Number of work items this cpu completed (Count)
system.timingCpu1.exec_context.thread_0.numInsts   2327451321                       # Number of instructions committed (Count)
system.timingCpu1.exec_context.thread_0.numOps   3970751486                       # Number of ops (including micro ops) committed (Count)
system.timingCpu1.exec_context.thread_0.numIntAluAccesses   3969837578                       # Number of integer alu accesses (Count)
system.timingCpu1.exec_context.thread_0.numFpAluAccesses      2106391                       # Number of float alu accesses (Count)
system.timingCpu1.exec_context.thread_0.numVecAluAccesses            0                       # Number of vector alu accesses (Count)
system.timingCpu1.exec_context.thread_0.numCallsReturns       775442                       # Number of times a function call or return occured (Count)
system.timingCpu1.exec_context.thread_0.numCondCtrlInsts    275286496                       # Number of instructions that are conditional controls (Count)
system.timingCpu1.exec_context.thread_0.numIntInsts   3969837578                       # Number of integer instructions (Count)
system.timingCpu1.exec_context.thread_0.numFpInsts      2106391                       # Number of float instructions (Count)
system.timingCpu1.exec_context.thread_0.numVecInsts            0                       # Number of vector instructions (Count)
system.timingCpu1.exec_context.thread_0.numIntRegReads   6548215531                       # Number of times the integer registers were read (Count)
system.timingCpu1.exec_context.thread_0.numIntRegWrites   3072812737                       # Number of times the integer registers were written (Count)
system.timingCpu1.exec_context.thread_0.numFpRegReads      2110498                       # Number of times the floating registers were read (Count)
system.timingCpu1.exec_context.thread_0.numFpRegWrites         4679                       # Number of times the floating registers were written (Count)
system.timingCpu1.exec_context.thread_0.numVecRegReads            0                       # Number of times the vector registers were read (Count)
system.timingCpu1.exec_context.thread_0.numVecRegWrites            0                       # Number of times the vector registers were written (Count)
system.timingCpu1.exec_context.thread_0.numVecPredRegReads            0                       # Number of times the predicate registers were read (Count)
system.timingCpu1.exec_context.thread_0.numVecPredRegWrites            0                       # Number of times the predicate registers were written (Count)
system.timingCpu1.exec_context.thread_0.numCCRegReads   1582399512                       # Number of times the CC registers were read (Count)
system.timingCpu1.exec_context.thread_0.numCCRegWrites   1913822999                       # Number of times the CC registers were written (Count)
system.timingCpu1.exec_context.thread_0.numMiscRegReads   1511835349                       # Number of times the Misc registers were read (Count)
system.timingCpu1.exec_context.thread_0.numMiscRegWrites       171493                       # Number of times the Misc registers were written (Count)
system.timingCpu1.exec_context.thread_0.numMemRefs    958708312                       # Number of memory refs (Count)
system.timingCpu1.exec_context.thread_0.numLoadInsts    612925119                       # Number of load instructions (Count)
system.timingCpu1.exec_context.thread_0.numStoreInsts    345783193                       # Number of store instructions (Count)
system.timingCpu1.exec_context.thread_0.numIdleCycles            0                       # Number of idle cycles (Cycle)
system.timingCpu1.exec_context.thread_0.numBusyCycles  19999999564                       # Number of busy cycles (Cycle)
system.timingCpu1.exec_context.thread_0.notIdleFraction            1                       # Percentage of non-idle cycles (Ratio)
system.timingCpu1.exec_context.thread_0.idleFraction            0                       # Percentage of idle cycles (Ratio)
system.timingCpu1.exec_context.thread_0.numBranches    276480049                       # Number of branches fetched (Count)
system.timingCpu1.exec_context.thread_0.statExecutedInstType::No_OpClass        32942      0.00%      0.00% # Class of executed instruction. (Count)
system.timingCpu1.exec_context.thread_0.statExecutedInstType::IntAlu   3011673391     75.85%     75.85% # Class of executed instruction. (Count)
system.timingCpu1.exec_context.thread_0.statExecutedInstType::IntMult       115152      0.00%     75.85% # Class of executed instruction. (Count)
system.timingCpu1.exec_context.thread_0.statExecutedInstType::IntDiv       217412      0.01%     75.86% # Class of executed instruction. (Count)
system.timingCpu1.exec_context.thread_0.statExecutedInstType::FloatAdd          515      0.00%     75.86% # Class of executed instruction. (Count)
system.timingCpu1.exec_context.thread_0.statExecutedInstType::FloatCmp            0      0.00%     75.86% # Class of executed instruction. (Count)
system.timingCpu1.exec_context.thread_0.statExecutedInstType::FloatCvt          144      0.00%     75.86% # Class of executed instruction. (Count)
system.timingCpu1.exec_context.thread_0.statExecutedInstType::FloatMult            0      0.00%     75.86% # Class of executed instruction. (Count)
system.timingCpu1.exec_context.thread_0.statExecutedInstType::FloatMultAcc            0      0.00%     75.86% # Class of executed instruction. (Count)
system.timingCpu1.exec_context.thread_0.statExecutedInstType::FloatDiv            0      0.00%     75.86% # Class of executed instruction. (Count)
system.timingCpu1.exec_context.thread_0.statExecutedInstType::FloatMisc            0      0.00%     75.86% # Class of executed instruction. (Count)
system.timingCpu1.exec_context.thread_0.statExecutedInstType::FloatSqrt            0      0.00%     75.86% # Class of executed instruction. (Count)
system.timingCpu1.exec_context.thread_0.statExecutedInstType::SimdAdd            0      0.00%     75.86% # Class of executed instruction. (Count)
system.timingCpu1.exec_context.thread_0.statExecutedInstType::SimdAddAcc            0      0.00%     75.86% # Class of executed instruction. (Count)
system.timingCpu1.exec_context.thread_0.statExecutedInstType::SimdAlu            8      0.00%     75.86% # Class of executed instruction. (Count)
system.timingCpu1.exec_context.thread_0.statExecutedInstType::SimdCmp            0      0.00%     75.86% # Class of executed instruction. (Count)
system.timingCpu1.exec_context.thread_0.statExecutedInstType::SimdCvt            8      0.00%     75.86% # Class of executed instruction. (Count)
system.timingCpu1.exec_context.thread_0.statExecutedInstType::SimdMisc         3602      0.00%     75.86% # Class of executed instruction. (Count)
system.timingCpu1.exec_context.thread_0.statExecutedInstType::SimdMult            0      0.00%     75.86% # Class of executed instruction. (Count)
system.timingCpu1.exec_context.thread_0.statExecutedInstType::SimdMultAcc            0      0.00%     75.86% # Class of executed instruction. (Count)
system.timingCpu1.exec_context.thread_0.statExecutedInstType::SimdShift            0      0.00%     75.86% # Class of executed instruction. (Count)
system.timingCpu1.exec_context.thread_0.statExecutedInstType::SimdShiftAcc            0      0.00%     75.86% # Class of executed instruction. (Count)
system.timingCpu1.exec_context.thread_0.statExecutedInstType::SimdDiv            0      0.00%     75.86% # Class of executed instruction. (Count)
system.timingCpu1.exec_context.thread_0.statExecutedInstType::SimdSqrt            0      0.00%     75.86% # Class of executed instruction. (Count)
system.timingCpu1.exec_context.thread_0.statExecutedInstType::SimdFloatAdd            0      0.00%     75.86% # Class of executed instruction. (Count)
system.timingCpu1.exec_context.thread_0.statExecutedInstType::SimdFloatAlu            0      0.00%     75.86% # Class of executed instruction. (Count)
system.timingCpu1.exec_context.thread_0.statExecutedInstType::SimdFloatCmp            0      0.00%     75.86% # Class of executed instruction. (Count)
system.timingCpu1.exec_context.thread_0.statExecutedInstType::SimdFloatCvt            0      0.00%     75.86% # Class of executed instruction. (Count)
system.timingCpu1.exec_context.thread_0.statExecutedInstType::SimdFloatDiv            0      0.00%     75.86% # Class of executed instruction. (Count)
system.timingCpu1.exec_context.thread_0.statExecutedInstType::SimdFloatMisc            0      0.00%     75.86% # Class of executed instruction. (Count)
system.timingCpu1.exec_context.thread_0.statExecutedInstType::SimdFloatMult            0      0.00%     75.86% # Class of executed instruction. (Count)
system.timingCpu1.exec_context.thread_0.statExecutedInstType::SimdFloatMultAcc            0      0.00%     75.86% # Class of executed instruction. (Count)
system.timingCpu1.exec_context.thread_0.statExecutedInstType::SimdFloatSqrt            0      0.00%     75.86% # Class of executed instruction. (Count)
system.timingCpu1.exec_context.thread_0.statExecutedInstType::SimdReduceAdd            0      0.00%     75.86% # Class of executed instruction. (Count)
system.timingCpu1.exec_context.thread_0.statExecutedInstType::SimdReduceAlu            0      0.00%     75.86% # Class of executed instruction. (Count)
system.timingCpu1.exec_context.thread_0.statExecutedInstType::SimdReduceCmp            0      0.00%     75.86% # Class of executed instruction. (Count)
system.timingCpu1.exec_context.thread_0.statExecutedInstType::SimdFloatReduceAdd            0      0.00%     75.86% # Class of executed instruction. (Count)
system.timingCpu1.exec_context.thread_0.statExecutedInstType::SimdFloatReduceCmp            0      0.00%     75.86% # Class of executed instruction. (Count)
system.timingCpu1.exec_context.thread_0.statExecutedInstType::SimdAes            0      0.00%     75.86% # Class of executed instruction. (Count)
system.timingCpu1.exec_context.thread_0.statExecutedInstType::SimdAesMix            0      0.00%     75.86% # Class of executed instruction. (Count)
system.timingCpu1.exec_context.thread_0.statExecutedInstType::SimdSha1Hash            0      0.00%     75.86% # Class of executed instruction. (Count)
system.timingCpu1.exec_context.thread_0.statExecutedInstType::SimdSha1Hash2            0      0.00%     75.86% # Class of executed instruction. (Count)
system.timingCpu1.exec_context.thread_0.statExecutedInstType::SimdSha256Hash            0      0.00%     75.86% # Class of executed instruction. (Count)
system.timingCpu1.exec_context.thread_0.statExecutedInstType::SimdSha256Hash2            0      0.00%     75.86% # Class of executed instruction. (Count)
system.timingCpu1.exec_context.thread_0.statExecutedInstType::SimdShaSigma2            0      0.00%     75.86% # Class of executed instruction. (Count)
system.timingCpu1.exec_context.thread_0.statExecutedInstType::SimdShaSigma3            0      0.00%     75.86% # Class of executed instruction. (Count)
system.timingCpu1.exec_context.thread_0.statExecutedInstType::SimdPredAlu            0      0.00%     75.86% # Class of executed instruction. (Count)
system.timingCpu1.exec_context.thread_0.statExecutedInstType::MemRead    612925087     15.44%     91.29% # Class of executed instruction. (Count)
system.timingCpu1.exec_context.thread_0.statExecutedInstType::MemWrite    343681629      8.66%     99.95% # Class of executed instruction. (Count)
system.timingCpu1.exec_context.thread_0.statExecutedInstType::FloatMemRead           32      0.00%     99.95% # Class of executed instruction. (Count)
system.timingCpu1.exec_context.thread_0.statExecutedInstType::FloatMemWrite      2101564      0.05%    100.00% # Class of executed instruction. (Count)
system.timingCpu1.exec_context.thread_0.statExecutedInstType::IprAccess            0      0.00%    100.00% # Class of executed instruction. (Count)
system.timingCpu1.exec_context.thread_0.statExecutedInstType::InstPrefetch            0      0.00%    100.00% # Class of executed instruction. (Count)
system.timingCpu1.exec_context.thread_0.statExecutedInstType::total   3970751486                       # Class of executed instruction. (Count)
system.timingCpu1.mmu.dtb.rdAccesses        613112338                       # TLB accesses on read requests (Count)
system.timingCpu1.mmu.dtb.wrAccesses        397344465                       # TLB accesses on write requests (Count)
system.timingCpu1.mmu.dtb.rdMisses             187565                       # TLB misses on read requests (Count)
system.timingCpu1.mmu.dtb.wrMisses           51561424                       # TLB misses on write requests (Count)
system.timingCpu1.mmu.dtb.walker.power_state.pwrStateResidencyTicks::UNDEFINED 31035545185250                       # Cumulative time (in ticks) in various power states (Tick)
system.timingCpu1.mmu.itb.rdAccesses                0                       # TLB accesses on read requests (Count)
system.timingCpu1.mmu.itb.wrAccesses       2939652071                       # TLB accesses on write requests (Count)
system.timingCpu1.mmu.itb.rdMisses                  0                       # TLB misses on read requests (Count)
system.timingCpu1.mmu.itb.wrMisses               6505                       # TLB misses on write requests (Count)
system.timingCpu1.mmu.itb.walker.power_state.pwrStateResidencyTicks::UNDEFINED 31035545185250                       # Cumulative time (in ticks) in various power states (Tick)
system.timingCpu1.power_state.pwrStateResidencyTicks::OFF 31035545185250                       # Cumulative time (in ticks) in various power states (Tick)
system.timingCpu1.thread_0.numInsts                 0                       # Number of Instructions committed (Count)
system.timingCpu1.thread_0.numOps                   0                       # Number of Ops committed (Count)
system.timingCpu1.thread_0.numMemRefs               0                       # Number of Memory References (Count)
system.workload.inst.arm                            0                       # number of arm instructions executed (Count)
system.workload.inst.quiesce                        0                       # number of quiesce instructions executed (Count)

---------- End Simulation Statistics   ----------
