
---------- Begin Simulation Statistics ----------
simSeconds                                   0.010000                       # Number of seconds simulated (Second)
simTicks                                  10000137928                       # Number of ticks simulated (Tick)
finalTick                                 10000137928                       # Number of ticks from beginning of simulation (restored from checkpoints and never reset) (Tick)
simFreq                                  1000000000000                       # The number of ticks per simulated second ((Tick/Second))
hostSeconds                                     35.15                       # Real time elapsed on the host (Second)
hostTickRate                                284471553                       # The number of ticks simulated per host second (ticks/s) ((Tick/Second))
hostMemory                                    3962228                       # Number of bytes of host memory used (Byte)
system.clk_domain.clock                           250                       # Clock period in ticks (Tick)
system.clk_domain.voltage_domain.voltage            1                       # Voltage in Volts (Volt)
system.far_mem_ctrl.avgPriority_writebacks::samples    585137.00                       # Average QoS priority value for accepted requests (Count)
system.far_mem_ctrl.priorityMinLatency   0.000000038316                       # per QoS priority minimum request to response latency (Second)
system.far_mem_ctrl.priorityMaxLatency   0.000174215632                       # per QoS priority maximum request to response latency (Second)
system.far_mem_ctrl.numReadWriteTurnArounds            0                       # Number of turnarounds from READ to WRITE (Count)
system.far_mem_ctrl.numWriteReadTurnArounds            0                       # Number of turnarounds from WRITE to READ (Count)
system.far_mem_ctrl.numStayReadState          1442898                       # Number of times bus staying in READ state (Count)
system.far_mem_ctrl.numStayWriteState               0                       # Number of times bus staying in WRITE state (Count)
system.far_mem_ctrl.readReqs                        0                       # Number of read requests accepted (Count)
system.far_mem_ctrl.writeReqs                 1325136                       # Number of write requests accepted (Count)
system.far_mem_ctrl.readBursts                      0                       # Number of controller read bursts, including those serviced by the write queue (Count)
system.far_mem_ctrl.writeBursts               1325136                       # Number of controller write bursts, including those merged in the write queue (Count)
system.far_mem_ctrl.servicedByWrQ                   0                       # Number of controller read bursts serviced by the write queue (Count)
system.far_mem_ctrl.mergedWrBursts             739999                       # Number of controller write bursts merged with an existing one (Count)
system.far_mem_ctrl.avgRdQLen                    0.00                       # Average read queue length when enqueuing ((Count/Tick))
system.far_mem_ctrl.avgWrQLen                   55.01                       # Average write queue length when enqueuing ((Count/Tick))
system.far_mem_ctrl.numRdRetry                      0                       # Number of times read queue was full causing retry (Count)
system.far_mem_ctrl.numWrRetry                      0                       # Number of times write queue was full causing retry (Count)
system.far_mem_ctrl.readPktSize::0                  0                       # Read request sizes (log2) (Count)
system.far_mem_ctrl.readPktSize::1                  0                       # Read request sizes (log2) (Count)
system.far_mem_ctrl.readPktSize::2                  0                       # Read request sizes (log2) (Count)
system.far_mem_ctrl.readPktSize::3                  0                       # Read request sizes (log2) (Count)
system.far_mem_ctrl.readPktSize::4                  0                       # Read request sizes (log2) (Count)
system.far_mem_ctrl.readPktSize::5                  0                       # Read request sizes (log2) (Count)
system.far_mem_ctrl.readPktSize::6                  0                       # Read request sizes (log2) (Count)
system.far_mem_ctrl.writePktSize::0                 0                       # Write request sizes (log2) (Count)
system.far_mem_ctrl.writePktSize::1                 0                       # Write request sizes (log2) (Count)
system.far_mem_ctrl.writePktSize::2                 0                       # Write request sizes (log2) (Count)
system.far_mem_ctrl.writePktSize::3                 0                       # Write request sizes (log2) (Count)
system.far_mem_ctrl.writePktSize::4                 0                       # Write request sizes (log2) (Count)
system.far_mem_ctrl.writePktSize::5                 0                       # Write request sizes (log2) (Count)
system.far_mem_ctrl.writePktSize::6           1325136                       # Write request sizes (log2) (Count)
system.far_mem_ctrl.rdQLenPdf::0                    0                       # What read queue length does an incoming req see (Count)
system.far_mem_ctrl.rdQLenPdf::1                    0                       # What read queue length does an incoming req see (Count)
system.far_mem_ctrl.rdQLenPdf::2                    0                       # What read queue length does an incoming req see (Count)
system.far_mem_ctrl.rdQLenPdf::3                    0                       # What read queue length does an incoming req see (Count)
system.far_mem_ctrl.rdQLenPdf::4                    0                       # What read queue length does an incoming req see (Count)
system.far_mem_ctrl.rdQLenPdf::5                    0                       # What read queue length does an incoming req see (Count)
system.far_mem_ctrl.rdQLenPdf::6                    0                       # What read queue length does an incoming req see (Count)
system.far_mem_ctrl.rdQLenPdf::7                    0                       # What read queue length does an incoming req see (Count)
system.far_mem_ctrl.rdQLenPdf::8                    0                       # What read queue length does an incoming req see (Count)
system.far_mem_ctrl.rdQLenPdf::9                    0                       # What read queue length does an incoming req see (Count)
system.far_mem_ctrl.rdQLenPdf::10                   0                       # What read queue length does an incoming req see (Count)
system.far_mem_ctrl.rdQLenPdf::11                   0                       # What read queue length does an incoming req see (Count)
system.far_mem_ctrl.rdQLenPdf::12                   0                       # What read queue length does an incoming req see (Count)
system.far_mem_ctrl.rdQLenPdf::13                   0                       # What read queue length does an incoming req see (Count)
system.far_mem_ctrl.rdQLenPdf::14                   0                       # What read queue length does an incoming req see (Count)
system.far_mem_ctrl.rdQLenPdf::15                   0                       # What read queue length does an incoming req see (Count)
system.far_mem_ctrl.rdQLenPdf::16                   0                       # What read queue length does an incoming req see (Count)
system.far_mem_ctrl.rdQLenPdf::17                   0                       # What read queue length does an incoming req see (Count)
system.far_mem_ctrl.rdQLenPdf::18                   0                       # What read queue length does an incoming req see (Count)
system.far_mem_ctrl.rdQLenPdf::19                   0                       # What read queue length does an incoming req see (Count)
system.far_mem_ctrl.rdQLenPdf::20                   0                       # What read queue length does an incoming req see (Count)
system.far_mem_ctrl.rdQLenPdf::21                   0                       # What read queue length does an incoming req see (Count)
system.far_mem_ctrl.rdQLenPdf::22                   0                       # What read queue length does an incoming req see (Count)
system.far_mem_ctrl.rdQLenPdf::23                   0                       # What read queue length does an incoming req see (Count)
system.far_mem_ctrl.rdQLenPdf::24                   0                       # What read queue length does an incoming req see (Count)
system.far_mem_ctrl.rdQLenPdf::25                   0                       # What read queue length does an incoming req see (Count)
system.far_mem_ctrl.rdQLenPdf::26                   0                       # What read queue length does an incoming req see (Count)
system.far_mem_ctrl.rdQLenPdf::27                   0                       # What read queue length does an incoming req see (Count)
system.far_mem_ctrl.rdQLenPdf::28                   0                       # What read queue length does an incoming req see (Count)
system.far_mem_ctrl.rdQLenPdf::29                   0                       # What read queue length does an incoming req see (Count)
system.far_mem_ctrl.rdQLenPdf::30                   0                       # What read queue length does an incoming req see (Count)
system.far_mem_ctrl.rdQLenPdf::31                   0                       # What read queue length does an incoming req see (Count)
system.far_mem_ctrl.rdQLenPdf::32                   0                       # What read queue length does an incoming req see (Count)
system.far_mem_ctrl.rdQLenPdf::33                   0                       # What read queue length does an incoming req see (Count)
system.far_mem_ctrl.rdQLenPdf::34                   0                       # What read queue length does an incoming req see (Count)
system.far_mem_ctrl.rdQLenPdf::35                   0                       # What read queue length does an incoming req see (Count)
system.far_mem_ctrl.rdQLenPdf::36                   0                       # What read queue length does an incoming req see (Count)
system.far_mem_ctrl.rdQLenPdf::37                   0                       # What read queue length does an incoming req see (Count)
system.far_mem_ctrl.rdQLenPdf::38                   0                       # What read queue length does an incoming req see (Count)
system.far_mem_ctrl.rdQLenPdf::39                   0                       # What read queue length does an incoming req see (Count)
system.far_mem_ctrl.rdQLenPdf::40                   0                       # What read queue length does an incoming req see (Count)
system.far_mem_ctrl.rdQLenPdf::41                   0                       # What read queue length does an incoming req see (Count)
system.far_mem_ctrl.rdQLenPdf::42                   0                       # What read queue length does an incoming req see (Count)
system.far_mem_ctrl.rdQLenPdf::43                   0                       # What read queue length does an incoming req see (Count)
system.far_mem_ctrl.rdQLenPdf::44                   0                       # What read queue length does an incoming req see (Count)
system.far_mem_ctrl.rdQLenPdf::45                   0                       # What read queue length does an incoming req see (Count)
system.far_mem_ctrl.rdQLenPdf::46                   0                       # What read queue length does an incoming req see (Count)
system.far_mem_ctrl.rdQLenPdf::47                   0                       # What read queue length does an incoming req see (Count)
system.far_mem_ctrl.rdQLenPdf::48                   0                       # What read queue length does an incoming req see (Count)
system.far_mem_ctrl.rdQLenPdf::49                   0                       # What read queue length does an incoming req see (Count)
system.far_mem_ctrl.rdQLenPdf::50                   0                       # What read queue length does an incoming req see (Count)
system.far_mem_ctrl.rdQLenPdf::51                   0                       # What read queue length does an incoming req see (Count)
system.far_mem_ctrl.rdQLenPdf::52                   0                       # What read queue length does an incoming req see (Count)
system.far_mem_ctrl.rdQLenPdf::53                   0                       # What read queue length does an incoming req see (Count)
system.far_mem_ctrl.rdQLenPdf::54                   0                       # What read queue length does an incoming req see (Count)
system.far_mem_ctrl.rdQLenPdf::55                   0                       # What read queue length does an incoming req see (Count)
system.far_mem_ctrl.rdQLenPdf::56                   0                       # What read queue length does an incoming req see (Count)
system.far_mem_ctrl.rdQLenPdf::57                   0                       # What read queue length does an incoming req see (Count)
system.far_mem_ctrl.rdQLenPdf::58                   0                       # What read queue length does an incoming req see (Count)
system.far_mem_ctrl.rdQLenPdf::59                   0                       # What read queue length does an incoming req see (Count)
system.far_mem_ctrl.rdQLenPdf::60                   0                       # What read queue length does an incoming req see (Count)
system.far_mem_ctrl.rdQLenPdf::61                   0                       # What read queue length does an incoming req see (Count)
system.far_mem_ctrl.rdQLenPdf::62                   0                       # What read queue length does an incoming req see (Count)
system.far_mem_ctrl.rdQLenPdf::63                   0                       # What read queue length does an incoming req see (Count)
system.far_mem_ctrl.wrQLenPdf::0                    1                       # What write queue length does an incoming req see (Count)
system.far_mem_ctrl.wrQLenPdf::1                    1                       # What write queue length does an incoming req see (Count)
system.far_mem_ctrl.wrQLenPdf::2                    1                       # What write queue length does an incoming req see (Count)
system.far_mem_ctrl.wrQLenPdf::3                    1                       # What write queue length does an incoming req see (Count)
system.far_mem_ctrl.wrQLenPdf::4                    1                       # What write queue length does an incoming req see (Count)
system.far_mem_ctrl.wrQLenPdf::5                    1                       # What write queue length does an incoming req see (Count)
system.far_mem_ctrl.wrQLenPdf::6                    1                       # What write queue length does an incoming req see (Count)
system.far_mem_ctrl.wrQLenPdf::7                    1                       # What write queue length does an incoming req see (Count)
system.far_mem_ctrl.wrQLenPdf::8                    1                       # What write queue length does an incoming req see (Count)
system.far_mem_ctrl.wrQLenPdf::9                    1                       # What write queue length does an incoming req see (Count)
system.far_mem_ctrl.wrQLenPdf::10                   1                       # What write queue length does an incoming req see (Count)
system.far_mem_ctrl.wrQLenPdf::11                   1                       # What write queue length does an incoming req see (Count)
system.far_mem_ctrl.wrQLenPdf::12                   1                       # What write queue length does an incoming req see (Count)
system.far_mem_ctrl.wrQLenPdf::13                   1                       # What write queue length does an incoming req see (Count)
system.far_mem_ctrl.wrQLenPdf::14                   1                       # What write queue length does an incoming req see (Count)
system.far_mem_ctrl.wrQLenPdf::15                   1                       # What write queue length does an incoming req see (Count)
system.far_mem_ctrl.wrQLenPdf::16                   1                       # What write queue length does an incoming req see (Count)
system.far_mem_ctrl.wrQLenPdf::17                   1                       # What write queue length does an incoming req see (Count)
system.far_mem_ctrl.wrQLenPdf::18                   1                       # What write queue length does an incoming req see (Count)
system.far_mem_ctrl.wrQLenPdf::19                   1                       # What write queue length does an incoming req see (Count)
system.far_mem_ctrl.wrQLenPdf::20                   1                       # What write queue length does an incoming req see (Count)
system.far_mem_ctrl.wrQLenPdf::21                   1                       # What write queue length does an incoming req see (Count)
system.far_mem_ctrl.wrQLenPdf::22                   1                       # What write queue length does an incoming req see (Count)
system.far_mem_ctrl.wrQLenPdf::23                   1                       # What write queue length does an incoming req see (Count)
system.far_mem_ctrl.wrQLenPdf::24                   1                       # What write queue length does an incoming req see (Count)
system.far_mem_ctrl.wrQLenPdf::25                   1                       # What write queue length does an incoming req see (Count)
system.far_mem_ctrl.wrQLenPdf::26                   1                       # What write queue length does an incoming req see (Count)
system.far_mem_ctrl.wrQLenPdf::27                   1                       # What write queue length does an incoming req see (Count)
system.far_mem_ctrl.wrQLenPdf::28                   1                       # What write queue length does an incoming req see (Count)
system.far_mem_ctrl.wrQLenPdf::29                   1                       # What write queue length does an incoming req see (Count)
system.far_mem_ctrl.wrQLenPdf::30                   1                       # What write queue length does an incoming req see (Count)
system.far_mem_ctrl.wrQLenPdf::31                   1                       # What write queue length does an incoming req see (Count)
system.far_mem_ctrl.wrQLenPdf::32                   1                       # What write queue length does an incoming req see (Count)
system.far_mem_ctrl.wrQLenPdf::33                   1                       # What write queue length does an incoming req see (Count)
system.far_mem_ctrl.wrQLenPdf::34                   1                       # What write queue length does an incoming req see (Count)
system.far_mem_ctrl.wrQLenPdf::35                   1                       # What write queue length does an incoming req see (Count)
system.far_mem_ctrl.wrQLenPdf::36                   1                       # What write queue length does an incoming req see (Count)
system.far_mem_ctrl.wrQLenPdf::37                   1                       # What write queue length does an incoming req see (Count)
system.far_mem_ctrl.wrQLenPdf::38                   1                       # What write queue length does an incoming req see (Count)
system.far_mem_ctrl.wrQLenPdf::39                   1                       # What write queue length does an incoming req see (Count)
system.far_mem_ctrl.wrQLenPdf::40                   1                       # What write queue length does an incoming req see (Count)
system.far_mem_ctrl.wrQLenPdf::41                   1                       # What write queue length does an incoming req see (Count)
system.far_mem_ctrl.wrQLenPdf::42                   1                       # What write queue length does an incoming req see (Count)
system.far_mem_ctrl.wrQLenPdf::43                   1                       # What write queue length does an incoming req see (Count)
system.far_mem_ctrl.wrQLenPdf::44                   1                       # What write queue length does an incoming req see (Count)
system.far_mem_ctrl.wrQLenPdf::45                   1                       # What write queue length does an incoming req see (Count)
system.far_mem_ctrl.wrQLenPdf::46                   1                       # What write queue length does an incoming req see (Count)
system.far_mem_ctrl.wrQLenPdf::47               17665                       # What write queue length does an incoming req see (Count)
system.far_mem_ctrl.wrQLenPdf::48               37717                       # What write queue length does an incoming req see (Count)
system.far_mem_ctrl.wrQLenPdf::49               38865                       # What write queue length does an incoming req see (Count)
system.far_mem_ctrl.wrQLenPdf::50               38849                       # What write queue length does an incoming req see (Count)
system.far_mem_ctrl.wrQLenPdf::51               38668                       # What write queue length does an incoming req see (Count)
system.far_mem_ctrl.wrQLenPdf::52               38957                       # What write queue length does an incoming req see (Count)
system.far_mem_ctrl.wrQLenPdf::53               39284                       # What write queue length does an incoming req see (Count)
system.far_mem_ctrl.wrQLenPdf::54               38930                       # What write queue length does an incoming req see (Count)
system.far_mem_ctrl.wrQLenPdf::55               39490                       # What write queue length does an incoming req see (Count)
system.far_mem_ctrl.wrQLenPdf::56               39958                       # What write queue length does an incoming req see (Count)
system.far_mem_ctrl.wrQLenPdf::57               40616                       # What write queue length does an incoming req see (Count)
system.far_mem_ctrl.wrQLenPdf::58               41561                       # What write queue length does an incoming req see (Count)
system.far_mem_ctrl.wrQLenPdf::59               43206                       # What write queue length does an incoming req see (Count)
system.far_mem_ctrl.wrQLenPdf::60               19120                       # What write queue length does an incoming req see (Count)
system.far_mem_ctrl.wrQLenPdf::61               17838                       # What write queue length does an incoming req see (Count)
system.far_mem_ctrl.wrQLenPdf::62               17822                       # What write queue length does an incoming req see (Count)
system.far_mem_ctrl.wrQLenPdf::63               17799                       # What write queue length does an incoming req see (Count)
system.far_mem_ctrl.wrQLenPdf::64               17781                       # What write queue length does an incoming req see (Count)
system.far_mem_ctrl.wrQLenPdf::65                 213                       # What write queue length does an incoming req see (Count)
system.far_mem_ctrl.wrQLenPdf::66                 166                       # What write queue length does an incoming req see (Count)
system.far_mem_ctrl.wrQLenPdf::67                 151                       # What write queue length does an incoming req see (Count)
system.far_mem_ctrl.wrQLenPdf::68                 125                       # What write queue length does an incoming req see (Count)
system.far_mem_ctrl.wrQLenPdf::69                  92                       # What write queue length does an incoming req see (Count)
system.far_mem_ctrl.wrQLenPdf::70                  71                       # What write queue length does an incoming req see (Count)
system.far_mem_ctrl.wrQLenPdf::71                  47                       # What write queue length does an incoming req see (Count)
system.far_mem_ctrl.wrQLenPdf::72                  36                       # What write queue length does an incoming req see (Count)
system.far_mem_ctrl.wrQLenPdf::73                  20                       # What write queue length does an incoming req see (Count)
system.far_mem_ctrl.wrQLenPdf::74                  15                       # What write queue length does an incoming req see (Count)
system.far_mem_ctrl.wrQLenPdf::75                  13                       # What write queue length does an incoming req see (Count)
system.far_mem_ctrl.wrQLenPdf::76                   6                       # What write queue length does an incoming req see (Count)
system.far_mem_ctrl.wrQLenPdf::77                   4                       # What write queue length does an incoming req see (Count)
system.far_mem_ctrl.wrQLenPdf::78                   3                       # What write queue length does an incoming req see (Count)
system.far_mem_ctrl.wrQLenPdf::79                   2                       # What write queue length does an incoming req see (Count)
system.far_mem_ctrl.wrQLenPdf::80                   0                       # What write queue length does an incoming req see (Count)
system.far_mem_ctrl.wrQLenPdf::81                   0                       # What write queue length does an incoming req see (Count)
system.far_mem_ctrl.wrQLenPdf::82                   0                       # What write queue length does an incoming req see (Count)
system.far_mem_ctrl.wrQLenPdf::83                   0                       # What write queue length does an incoming req see (Count)
system.far_mem_ctrl.wrQLenPdf::84                   0                       # What write queue length does an incoming req see (Count)
system.far_mem_ctrl.wrQLenPdf::85                   0                       # What write queue length does an incoming req see (Count)
system.far_mem_ctrl.wrQLenPdf::86                   0                       # What write queue length does an incoming req see (Count)
system.far_mem_ctrl.wrQLenPdf::87                   0                       # What write queue length does an incoming req see (Count)
system.far_mem_ctrl.wrQLenPdf::88                   0                       # What write queue length does an incoming req see (Count)
system.far_mem_ctrl.wrQLenPdf::89                   0                       # What write queue length does an incoming req see (Count)
system.far_mem_ctrl.wrQLenPdf::90                   0                       # What write queue length does an incoming req see (Count)
system.far_mem_ctrl.wrQLenPdf::91                   0                       # What write queue length does an incoming req see (Count)
system.far_mem_ctrl.wrQLenPdf::92                   0                       # What write queue length does an incoming req see (Count)
system.far_mem_ctrl.wrQLenPdf::93                   0                       # What write queue length does an incoming req see (Count)
system.far_mem_ctrl.wrQLenPdf::94                   0                       # What write queue length does an incoming req see (Count)
system.far_mem_ctrl.wrQLenPdf::95                   0                       # What write queue length does an incoming req see (Count)
system.far_mem_ctrl.wrQLenPdf::96                   0                       # What write queue length does an incoming req see (Count)
system.far_mem_ctrl.wrQLenPdf::97                   0                       # What write queue length does an incoming req see (Count)
system.far_mem_ctrl.wrQLenPdf::98                   0                       # What write queue length does an incoming req see (Count)
system.far_mem_ctrl.wrQLenPdf::99                   0                       # What write queue length does an incoming req see (Count)
system.far_mem_ctrl.wrQLenPdf::100                  0                       # What write queue length does an incoming req see (Count)
system.far_mem_ctrl.wrQLenPdf::101                  0                       # What write queue length does an incoming req see (Count)
system.far_mem_ctrl.wrQLenPdf::102                  0                       # What write queue length does an incoming req see (Count)
system.far_mem_ctrl.wrQLenPdf::103                  0                       # What write queue length does an incoming req see (Count)
system.far_mem_ctrl.wrQLenPdf::104                  0                       # What write queue length does an incoming req see (Count)
system.far_mem_ctrl.wrQLenPdf::105                  0                       # What write queue length does an incoming req see (Count)
system.far_mem_ctrl.wrQLenPdf::106                  0                       # What write queue length does an incoming req see (Count)
system.far_mem_ctrl.wrQLenPdf::107                  0                       # What write queue length does an incoming req see (Count)
system.far_mem_ctrl.wrQLenPdf::108                  0                       # What write queue length does an incoming req see (Count)
system.far_mem_ctrl.wrQLenPdf::109                  0                       # What write queue length does an incoming req see (Count)
system.far_mem_ctrl.wrQLenPdf::110                  0                       # What write queue length does an incoming req see (Count)
system.far_mem_ctrl.wrQLenPdf::111                  0                       # What write queue length does an incoming req see (Count)
system.far_mem_ctrl.wrQLenPdf::112                  0                       # What write queue length does an incoming req see (Count)
system.far_mem_ctrl.wrQLenPdf::113                  0                       # What write queue length does an incoming req see (Count)
system.far_mem_ctrl.wrQLenPdf::114                  0                       # What write queue length does an incoming req see (Count)
system.far_mem_ctrl.wrQLenPdf::115                  0                       # What write queue length does an incoming req see (Count)
system.far_mem_ctrl.wrQLenPdf::116                  0                       # What write queue length does an incoming req see (Count)
system.far_mem_ctrl.wrQLenPdf::117                  0                       # What write queue length does an incoming req see (Count)
system.far_mem_ctrl.wrQLenPdf::118                  0                       # What write queue length does an incoming req see (Count)
system.far_mem_ctrl.wrQLenPdf::119                  0                       # What write queue length does an incoming req see (Count)
system.far_mem_ctrl.wrQLenPdf::120                  0                       # What write queue length does an incoming req see (Count)
system.far_mem_ctrl.wrQLenPdf::121                  0                       # What write queue length does an incoming req see (Count)
system.far_mem_ctrl.wrQLenPdf::122                  0                       # What write queue length does an incoming req see (Count)
system.far_mem_ctrl.wrQLenPdf::123                  0                       # What write queue length does an incoming req see (Count)
system.far_mem_ctrl.wrQLenPdf::124                  0                       # What write queue length does an incoming req see (Count)
system.far_mem_ctrl.wrQLenPdf::125                  0                       # What write queue length does an incoming req see (Count)
system.far_mem_ctrl.wrQLenPdf::126                  0                       # What write queue length does an incoming req see (Count)
system.far_mem_ctrl.wrQLenPdf::127                  0                       # What write queue length does an incoming req see (Count)
system.far_mem_ctrl.rdPerTurnAround::samples        17664                       # Reads before turning the bus around for writes (Count)
system.far_mem_ctrl.rdPerTurnAround::0          17664    100.00%    100.00% # Reads before turning the bus around for writes (Count)
system.far_mem_ctrl.rdPerTurnAround::total        17664                       # Reads before turning the bus around for writes (Count)
system.far_mem_ctrl.wrPerTurnAround::samples        17664                       # Writes before turning the bus around for reads (Count)
system.far_mem_ctrl.wrPerTurnAround::0          17664    100.00%    100.00% # Writes before turning the bus around for reads (Count)
system.far_mem_ctrl.wrPerTurnAround::total        17664                       # Writes before turning the bus around for reads (Count)
system.far_mem_ctrl.bytesReadWrQ                    0                       # Total number of bytes read from write queue (Byte)
system.far_mem_ctrl.bytesReadSys                    0                       # Total read bytes from the system interface side (Byte)
system.far_mem_ctrl.bytesWrittenSys          84808704                       # Total written bytes from the system interface side (Byte)
system.far_mem_ctrl.avgRdBWSys             0.00000000                       # Average system read bandwidth in Byte/s ((Byte/Second))
system.far_mem_ctrl.avgWrBWSys           8480753426.66413593                       # Average system write bandwidth in Byte/s ((Byte/Second))
system.far_mem_ctrl.totGap                10000072112                       # Total gap between requests (Tick)
system.far_mem_ctrl.avgGap                    7546.45                       # Average gap between requests ((Tick/Count))
system.far_mem_ctrl.requestorWriteBytes::writebacks     37445376                       # Per-requestor bytes write to memory (Byte)
system.far_mem_ctrl.requestorWriteRate::writebacks 3744485953.054146289825                       # Per-requestor bytes write to memory rate ((Byte/Second))
system.far_mem_ctrl.requestorWriteAccesses::writebacks      1325136                       # Per-requestor write serviced memory accesses (Count)
system.far_mem_ctrl.requestorWriteTotalLat::writebacks 567321171372                       # Per-requestor write total memory access latency (Tick)
system.far_mem_ctrl.requestorWriteAvgLat::writebacks    428122.98                       # Per-requestor write average memory access latency ((Tick/Count))
system.far_mem_ctrl.dram.bytesWritten::writebacks     84808704                       # Number of bytes written to this memory (Byte)
system.far_mem_ctrl.dram.bytesWritten::total     84808704                       # Number of bytes written to this memory (Byte)
system.far_mem_ctrl.dram.numWrites::writebacks      1325136                       # Number of write requests responded to by this memory (Count)
system.far_mem_ctrl.dram.numWrites::total      1325136                       # Number of write requests responded to by this memory (Count)
system.far_mem_ctrl.dram.bwWrite::writebacks   8480753427                       # Write bandwidth from this memory ((Byte/Second))
system.far_mem_ctrl.dram.bwWrite::total    8480753427                       # Write bandwidth from this memory ((Byte/Second))
system.far_mem_ctrl.dram.bwTotal::writebacks   8480753427                       # Total bandwidth to/from this memory ((Byte/Second))
system.far_mem_ctrl.dram.bwTotal::total    8480753427                       # Total bandwidth to/from this memory ((Byte/Second))
system.far_mem_ctrl.dram.readBursts                 0                       # Number of DRAM read bursts (Count)
system.far_mem_ctrl.dram.writeBursts           585084                       # Number of DRAM write bursts (Count)
system.far_mem_ctrl.dram.perBankRdBursts::0            0                       # Per bank write bursts (Count)
system.far_mem_ctrl.dram.perBankRdBursts::1            0                       # Per bank write bursts (Count)
system.far_mem_ctrl.dram.perBankRdBursts::2            0                       # Per bank write bursts (Count)
system.far_mem_ctrl.dram.perBankRdBursts::3            0                       # Per bank write bursts (Count)
system.far_mem_ctrl.dram.perBankRdBursts::4            0                       # Per bank write bursts (Count)
system.far_mem_ctrl.dram.perBankRdBursts::5            0                       # Per bank write bursts (Count)
system.far_mem_ctrl.dram.perBankRdBursts::6            0                       # Per bank write bursts (Count)
system.far_mem_ctrl.dram.perBankRdBursts::7            0                       # Per bank write bursts (Count)
system.far_mem_ctrl.dram.perBankRdBursts::8            0                       # Per bank write bursts (Count)
system.far_mem_ctrl.dram.perBankRdBursts::9            0                       # Per bank write bursts (Count)
system.far_mem_ctrl.dram.perBankRdBursts::10            0                       # Per bank write bursts (Count)
system.far_mem_ctrl.dram.perBankRdBursts::11            0                       # Per bank write bursts (Count)
system.far_mem_ctrl.dram.perBankRdBursts::12            0                       # Per bank write bursts (Count)
system.far_mem_ctrl.dram.perBankRdBursts::13            0                       # Per bank write bursts (Count)
system.far_mem_ctrl.dram.perBankRdBursts::14            0                       # Per bank write bursts (Count)
system.far_mem_ctrl.dram.perBankRdBursts::15            0                       # Per bank write bursts (Count)
system.far_mem_ctrl.dram.perBankRdBursts::16            0                       # Per bank write bursts (Count)
system.far_mem_ctrl.dram.perBankRdBursts::17            0                       # Per bank write bursts (Count)
system.far_mem_ctrl.dram.perBankRdBursts::18            0                       # Per bank write bursts (Count)
system.far_mem_ctrl.dram.perBankRdBursts::19            0                       # Per bank write bursts (Count)
system.far_mem_ctrl.dram.perBankRdBursts::20            0                       # Per bank write bursts (Count)
system.far_mem_ctrl.dram.perBankRdBursts::21            0                       # Per bank write bursts (Count)
system.far_mem_ctrl.dram.perBankRdBursts::22            0                       # Per bank write bursts (Count)
system.far_mem_ctrl.dram.perBankRdBursts::23            0                       # Per bank write bursts (Count)
system.far_mem_ctrl.dram.perBankRdBursts::24            0                       # Per bank write bursts (Count)
system.far_mem_ctrl.dram.perBankRdBursts::25            0                       # Per bank write bursts (Count)
system.far_mem_ctrl.dram.perBankRdBursts::26            0                       # Per bank write bursts (Count)
system.far_mem_ctrl.dram.perBankRdBursts::27            0                       # Per bank write bursts (Count)
system.far_mem_ctrl.dram.perBankRdBursts::28            0                       # Per bank write bursts (Count)
system.far_mem_ctrl.dram.perBankRdBursts::29            0                       # Per bank write bursts (Count)
system.far_mem_ctrl.dram.perBankRdBursts::30            0                       # Per bank write bursts (Count)
system.far_mem_ctrl.dram.perBankRdBursts::31            0                       # Per bank write bursts (Count)
system.far_mem_ctrl.dram.perBankWrBursts::0        29696                       # Per bank write bursts (Count)
system.far_mem_ctrl.dram.perBankWrBursts::1        17751                       # Per bank write bursts (Count)
system.far_mem_ctrl.dram.perBankWrBursts::2        17813                       # Per bank write bursts (Count)
system.far_mem_ctrl.dram.perBankWrBursts::3        18032                       # Per bank write bursts (Count)
system.far_mem_ctrl.dram.perBankWrBursts::4        18123                       # Per bank write bursts (Count)
system.far_mem_ctrl.dram.perBankWrBursts::5        18049                       # Per bank write bursts (Count)
system.far_mem_ctrl.dram.perBankWrBursts::6        17763                       # Per bank write bursts (Count)
system.far_mem_ctrl.dram.perBankWrBursts::7        17848                       # Per bank write bursts (Count)
system.far_mem_ctrl.dram.perBankWrBursts::8        17700                       # Per bank write bursts (Count)
system.far_mem_ctrl.dram.perBankWrBursts::9        17984                       # Per bank write bursts (Count)
system.far_mem_ctrl.dram.perBankWrBursts::10        18109                       # Per bank write bursts (Count)
system.far_mem_ctrl.dram.perBankWrBursts::11        17837                       # Per bank write bursts (Count)
system.far_mem_ctrl.dram.perBankWrBursts::12        18117                       # Per bank write bursts (Count)
system.far_mem_ctrl.dram.perBankWrBursts::13        17820                       # Per bank write bursts (Count)
system.far_mem_ctrl.dram.perBankWrBursts::14        17895                       # Per bank write bursts (Count)
system.far_mem_ctrl.dram.perBankWrBursts::15        18122                       # Per bank write bursts (Count)
system.far_mem_ctrl.dram.perBankWrBursts::16        17929                       # Per bank write bursts (Count)
system.far_mem_ctrl.dram.perBankWrBursts::17        17943                       # Per bank write bursts (Count)
system.far_mem_ctrl.dram.perBankWrBursts::18        18001                       # Per bank write bursts (Count)
system.far_mem_ctrl.dram.perBankWrBursts::19        17859                       # Per bank write bursts (Count)
system.far_mem_ctrl.dram.perBankWrBursts::20        17701                       # Per bank write bursts (Count)
system.far_mem_ctrl.dram.perBankWrBursts::21        17867                       # Per bank write bursts (Count)
system.far_mem_ctrl.dram.perBankWrBursts::22        17967                       # Per bank write bursts (Count)
system.far_mem_ctrl.dram.perBankWrBursts::23        17831                       # Per bank write bursts (Count)
system.far_mem_ctrl.dram.perBankWrBursts::24        17914                       # Per bank write bursts (Count)
system.far_mem_ctrl.dram.perBankWrBursts::25        17768                       # Per bank write bursts (Count)
system.far_mem_ctrl.dram.perBankWrBursts::26        17854                       # Per bank write bursts (Count)
system.far_mem_ctrl.dram.perBankWrBursts::27        18002                       # Per bank write bursts (Count)
system.far_mem_ctrl.dram.perBankWrBursts::28        18081                       # Per bank write bursts (Count)
system.far_mem_ctrl.dram.perBankWrBursts::29        17699                       # Per bank write bursts (Count)
system.far_mem_ctrl.dram.perBankWrBursts::30        17852                       # Per bank write bursts (Count)
system.far_mem_ctrl.dram.perBankWrBursts::31        18157                       # Per bank write bursts (Count)
system.far_mem_ctrl.dram.totQLat                    0                       # Total ticks spent queuing (Tick)
system.far_mem_ctrl.dram.totBusLat                  0                       # Total ticks spent in databus transfers (Tick)
system.far_mem_ctrl.dram.totMemAccLat               0                       # Total ticks spent from burst creation until serviced by the DRAM (Tick)
system.far_mem_ctrl.dram.avgQLat                  nan                       # Average queueing delay per DRAM burst ((Tick/Count))
system.far_mem_ctrl.dram.avgBusLat                nan                       # Average bus latency per DRAM burst ((Tick/Count))
system.far_mem_ctrl.dram.avgMemAccLat             nan                       # Average memory access latency per DRAM burst ((Tick/Count))
system.far_mem_ctrl.dram.readRowHits                0                       # Number of row buffer hits during reads (Count)
system.far_mem_ctrl.dram.writeRowHits            5511                       # Number of row buffer hits during writes (Count)
system.far_mem_ctrl.dram.readRowHitRate           nan                       # Row buffer hit rate for reads (Ratio)
system.far_mem_ctrl.dram.writeRowHitRate         0.94                       # Row buffer hit rate for writes (Ratio)
system.far_mem_ctrl.dram.bytesPerActivate::samples       579563                       # Bytes accessed per row activation (Byte)
system.far_mem_ctrl.dram.bytesPerActivate::mean    64.608569                       # Bytes accessed per row activation (Byte)
system.far_mem_ctrl.dram.bytesPerActivate::gmean    64.158831                       # Bytes accessed per row activation (Byte)
system.far_mem_ctrl.dram.bytesPerActivate::stdev    20.531259                       # Bytes accessed per row activation (Byte)
system.far_mem_ctrl.dram.bytesPerActivate::0-127       578778     99.86%     99.86% # Bytes accessed per row activation (Byte)
system.far_mem_ctrl.dram.bytesPerActivate::128-255          206      0.04%     99.90% # Bytes accessed per row activation (Byte)
system.far_mem_ctrl.dram.bytesPerActivate::256-383          120      0.02%     99.92% # Bytes accessed per row activation (Byte)
system.far_mem_ctrl.dram.bytesPerActivate::384-511          115      0.02%     99.94% # Bytes accessed per row activation (Byte)
system.far_mem_ctrl.dram.bytesPerActivate::512-639           56      0.01%     99.95% # Bytes accessed per row activation (Byte)
system.far_mem_ctrl.dram.bytesPerActivate::640-767           52      0.01%     99.96% # Bytes accessed per row activation (Byte)
system.far_mem_ctrl.dram.bytesPerActivate::768-895           53      0.01%     99.97% # Bytes accessed per row activation (Byte)
system.far_mem_ctrl.dram.bytesPerActivate::896-1023           35      0.01%     99.97% # Bytes accessed per row activation (Byte)
system.far_mem_ctrl.dram.bytesPerActivate::1024-1151          148      0.03%    100.00% # Bytes accessed per row activation (Byte)
system.far_mem_ctrl.dram.bytesPerActivate::total       579563                       # Bytes accessed per row activation (Byte)
system.far_mem_ctrl.dram.bytesRead                  0                       # Total bytes read (Byte)
system.far_mem_ctrl.dram.bytesWritten        37445376                       # Total bytes written (Byte)
system.far_mem_ctrl.dram.avgRdBW                    0                       # Average DRAM read bandwidth in MiBytes/s ((Byte/Second))
system.far_mem_ctrl.dram.avgWrBW          3744.485953                       # Average DRAM write bandwidth in MiBytes/s ((Byte/Second))
system.far_mem_ctrl.dram.peakBW              19207.00                       # Theoretical peak bandwidth in MiByte/s ((Byte/Second))
system.far_mem_ctrl.dram.busUtil                19.50                       # Data bus utilization in percentage (Ratio)
system.far_mem_ctrl.dram.busUtilRead             0.00                       # Data bus utilization in percentage for reads (Ratio)
system.far_mem_ctrl.dram.busUtilWrite           19.50                       # Data bus utilization in percentage for writes (Ratio)
system.far_mem_ctrl.dram.pageHitRate             0.94                       # Row buffer hit rate, read and write combined (Ratio)
system.far_mem_ctrl.dram.power_state.pwrStateResidencyTicks::UNDEFINED  10000137928                       # Cumulative time (in ticks) in various power states (Tick)
system.far_mem_ctrl.dram.rank0.actEnergy 914414967.647998                       # Energy for activate commands per rank (pJ) (Joule)
system.far_mem_ctrl.dram.rank0.preEnergy 1215678098.174399                       # Energy for precharge commands per rank (pJ) (Joule)
system.far_mem_ctrl.dram.rank0.readEnergy            0                       # Energy for read commands per rank (pJ) (Joule)
system.far_mem_ctrl.dram.rank0.writeEnergy 1122508656.864000                       # Energy for write commands per rank (pJ) (Joule)
system.far_mem_ctrl.dram.rank0.refreshEnergy 1778824873.324749                       # Energy for refresh commands per rank (pJ) (Joule)
system.far_mem_ctrl.dram.rank0.actBackEnergy 7686406714.996810                       # Energy for active background per rank (pJ) (Joule)
system.far_mem_ctrl.dram.rank0.preBackEnergy 622150688.140800                       # Energy for precharge background per rank (pJ) (Joule)
system.far_mem_ctrl.dram.rank0.actPowerDownEnergy            0                       # Energy for active power-down per rank (pJ) (Joule)
system.far_mem_ctrl.dram.rank0.prePowerDownEnergy            0                       # Energy for precharge power-down per rank (pJ) (Joule)
system.far_mem_ctrl.dram.rank0.selfRefreshEnergy            0                       # Energy for self refresh per rank (pJ) (Joule)
system.far_mem_ctrl.dram.rank0.totalEnergy 13339983999.148762                       # Total energy per rank (pJ) (Joule)
system.far_mem_ctrl.dram.rank0.averagePower  1333.980001                       # Core power per rank (mW) (Watt)
system.far_mem_ctrl.dram.rank0.totalIdleTime            0                       # Total Idle time Per DRAM Rank (Tick)
system.far_mem_ctrl.dram.rank0.pwrStateTime::IDLE    916202754                       # Time in different power states (Tick)
system.far_mem_ctrl.dram.rank0.pwrStateTime::REF    449400000                       # Time in different power states (Tick)
system.far_mem_ctrl.dram.rank0.pwrStateTime::SREF            0                       # Time in different power states (Tick)
system.far_mem_ctrl.dram.rank0.pwrStateTime::PRE_PDN            0                       # Time in different power states (Tick)
system.far_mem_ctrl.dram.rank0.pwrStateTime::ACT   8634535174                       # Time in different power states (Tick)
system.far_mem_ctrl.dram.rank0.pwrStateTime::ACT_PDN            0                       # Time in different power states (Tick)
system.far_mem_ctrl.dram.rank1.actEnergy 893129485.248000                       # Energy for activate commands per rank (pJ) (Joule)
system.far_mem_ctrl.dram.rank1.preEnergy 1187387614.896000                       # Energy for precharge commands per rank (pJ) (Joule)
system.far_mem_ctrl.dram.rank1.readEnergy            0                       # Energy for read commands per rank (pJ) (Joule)
system.far_mem_ctrl.dram.rank1.writeEnergy 1076527216.800000                       # Energy for write commands per rank (pJ) (Joule)
system.far_mem_ctrl.dram.rank1.refreshEnergy 1778824873.324749                       # Energy for refresh commands per rank (pJ) (Joule)
system.far_mem_ctrl.dram.rank1.actBackEnergy 7679553185.505587                       # Energy for active background per rank (pJ) (Joule)
system.far_mem_ctrl.dram.rank1.preBackEnergy 627416676.902400                       # Energy for precharge background per rank (pJ) (Joule)
system.far_mem_ctrl.dram.rank1.actPowerDownEnergy            0                       # Energy for active power-down per rank (pJ) (Joule)
system.far_mem_ctrl.dram.rank1.prePowerDownEnergy            0                       # Energy for precharge power-down per rank (pJ) (Joule)
system.far_mem_ctrl.dram.rank1.selfRefreshEnergy            0                       # Energy for self refresh per rank (pJ) (Joule)
system.far_mem_ctrl.dram.rank1.totalEnergy 13242839052.676817                       # Total energy per rank (pJ) (Joule)
system.far_mem_ctrl.dram.rank1.averagePower  1324.265640                       # Core power per rank (mW) (Watt)
system.far_mem_ctrl.dram.rank1.totalIdleTime            0                       # Total Idle time Per DRAM Rank (Tick)
system.far_mem_ctrl.dram.rank1.pwrStateTime::IDLE    924078134                       # Time in different power states (Tick)
system.far_mem_ctrl.dram.rank1.pwrStateTime::REF    449400000                       # Time in different power states (Tick)
system.far_mem_ctrl.dram.rank1.pwrStateTime::SREF            0                       # Time in different power states (Tick)
system.far_mem_ctrl.dram.rank1.pwrStateTime::PRE_PDN            0                       # Time in different power states (Tick)
system.far_mem_ctrl.dram.rank1.pwrStateTime::ACT   8626659794                       # Time in different power states (Tick)
system.far_mem_ctrl.dram.rank1.pwrStateTime::ACT_PDN            0                       # Time in different power states (Tick)
system.far_mem_ctrl.power_state.pwrStateResidencyTicks::UNDEFINED  10000137928                       # Cumulative time (in ticks) in various power states (Tick)
system.generator.numSuppressed                      0                       # Number of suppressed packets to non-memory space (Count)
system.generator.numPackets                   1325389                       # Number of packets generated (Count)
system.generator.numRetries                   1324702                       # Number of retries (Count)
system.generator.retryTicks                9999449304                       # Time spent waiting due to back-pressure (Tick)
system.generator.bytesRead                          0                       # Number of bytes read (Byte)
system.generator.bytesWritten                84824832                       # Number of bytes written (Byte)
system.generator.totalReadLatency                   0                       # Total latency of read requests (Tick)
system.generator.totalWriteLatency        36829489202                       # Total latency of write requests (Tick)
system.generator.totalReads                         0                       # Total num of reads (Count)
system.generator.totalWrites                  1325388                       # Total num of writes (Count)
system.generator.avgReadLatency                   nan                       # Avg latency of read requests ((Tick/Count))
system.generator.avgWriteLatency         27787.703829                       # Avg latency of write requests ((Tick/Count))
system.generator.readBW                             0                       # Read bandwidth ((Byte/Second))
system.generator.writeBW                 8482366204.419415                       # Write bandwidth ((Byte/Second))
system.generator.power_state.pwrStateResidencyTicks::UNDEFINED  10000137928                       # Cumulative time (in ticks) in various power states (Tick)
system.loc_mem_ctrl.avgPriority_writebacks::samples   2650338.00                       # Average QoS priority value for accepted requests (Count)
system.loc_mem_ctrl.priorityMinLatency   0.000000044812                       # per QoS priority minimum request to response latency (Second)
system.loc_mem_ctrl.priorityMaxLatency   0.000012061922                       # per QoS priority maximum request to response latency (Second)
system.loc_mem_ctrl.numReadWriteTurnArounds            0                       # Number of turnarounds from READ to WRITE (Count)
system.loc_mem_ctrl.numWriteReadTurnArounds            0                       # Number of turnarounds from WRITE to READ (Count)
system.loc_mem_ctrl.numStayReadState          2660035                       # Number of times bus staying in READ state (Count)
system.loc_mem_ctrl.numStayWriteState               0                       # Number of times bus staying in WRITE state (Count)
system.loc_mem_ctrl.readReqs                  1325206                       # Number of read requests accepted (Count)
system.loc_mem_ctrl.writeReqs                 1325136                       # Number of write requests accepted (Count)
system.loc_mem_ctrl.readBursts                1325206                       # Number of controller read bursts, including those serviced by the write queue (Count)
system.loc_mem_ctrl.writeBursts               1325136                       # Number of controller write bursts, including those merged in the write queue (Count)
system.loc_mem_ctrl.servicedByWrQ                   4                       # Number of controller read bursts serviced by the write queue (Count)
system.loc_mem_ctrl.mergedWrBursts                  0                       # Number of controller write bursts merged with an existing one (Count)
system.loc_mem_ctrl.avgRdQLen                   61.14                       # Average read queue length when enqueuing ((Count/Tick))
system.loc_mem_ctrl.avgWrQLen                  123.45                       # Average write queue length when enqueuing ((Count/Tick))
system.loc_mem_ctrl.numRdRetry                2678386                       # Number of times read queue was full causing retry (Count)
system.loc_mem_ctrl.numWrRetry                2731769                       # Number of times write queue was full causing retry (Count)
system.loc_mem_ctrl.readPktSize::0                  0                       # Read request sizes (log2) (Count)
system.loc_mem_ctrl.readPktSize::1                  0                       # Read request sizes (log2) (Count)
system.loc_mem_ctrl.readPktSize::2                  0                       # Read request sizes (log2) (Count)
system.loc_mem_ctrl.readPktSize::3                  0                       # Read request sizes (log2) (Count)
system.loc_mem_ctrl.readPktSize::4                  0                       # Read request sizes (log2) (Count)
system.loc_mem_ctrl.readPktSize::5                  0                       # Read request sizes (log2) (Count)
system.loc_mem_ctrl.readPktSize::6            1325206                       # Read request sizes (log2) (Count)
system.loc_mem_ctrl.writePktSize::0                 0                       # Write request sizes (log2) (Count)
system.loc_mem_ctrl.writePktSize::1                 0                       # Write request sizes (log2) (Count)
system.loc_mem_ctrl.writePktSize::2                 0                       # Write request sizes (log2) (Count)
system.loc_mem_ctrl.writePktSize::3                 0                       # Write request sizes (log2) (Count)
system.loc_mem_ctrl.writePktSize::4                 0                       # Write request sizes (log2) (Count)
system.loc_mem_ctrl.writePktSize::5                 0                       # Write request sizes (log2) (Count)
system.loc_mem_ctrl.writePktSize::6           1325136                       # Write request sizes (log2) (Count)
system.loc_mem_ctrl.rdQLenPdf::0                   18                       # What read queue length does an incoming req see (Count)
system.loc_mem_ctrl.rdQLenPdf::1                 2213                       # What read queue length does an incoming req see (Count)
system.loc_mem_ctrl.rdQLenPdf::2                 3364                       # What read queue length does an incoming req see (Count)
system.loc_mem_ctrl.rdQLenPdf::3                 3879                       # What read queue length does an incoming req see (Count)
system.loc_mem_ctrl.rdQLenPdf::4                 4140                       # What read queue length does an incoming req see (Count)
system.loc_mem_ctrl.rdQLenPdf::5                 4285                       # What read queue length does an incoming req see (Count)
system.loc_mem_ctrl.rdQLenPdf::6                 4298                       # What read queue length does an incoming req see (Count)
system.loc_mem_ctrl.rdQLenPdf::7                 4281                       # What read queue length does an incoming req see (Count)
system.loc_mem_ctrl.rdQLenPdf::8                 4241                       # What read queue length does an incoming req see (Count)
system.loc_mem_ctrl.rdQLenPdf::9                 4391                       # What read queue length does an incoming req see (Count)
system.loc_mem_ctrl.rdQLenPdf::10                8153                       # What read queue length does an incoming req see (Count)
system.loc_mem_ctrl.rdQLenPdf::11                3933                       # What read queue length does an incoming req see (Count)
system.loc_mem_ctrl.rdQLenPdf::12                3933                       # What read queue length does an incoming req see (Count)
system.loc_mem_ctrl.rdQLenPdf::13                3933                       # What read queue length does an incoming req see (Count)
system.loc_mem_ctrl.rdQLenPdf::14                3933                       # What read queue length does an incoming req see (Count)
system.loc_mem_ctrl.rdQLenPdf::15                3933                       # What read queue length does an incoming req see (Count)
system.loc_mem_ctrl.rdQLenPdf::16                3933                       # What read queue length does an incoming req see (Count)
system.loc_mem_ctrl.rdQLenPdf::17                3933                       # What read queue length does an incoming req see (Count)
system.loc_mem_ctrl.rdQLenPdf::18                3933                       # What read queue length does an incoming req see (Count)
system.loc_mem_ctrl.rdQLenPdf::19                3933                       # What read queue length does an incoming req see (Count)
system.loc_mem_ctrl.rdQLenPdf::20                3933                       # What read queue length does an incoming req see (Count)
system.loc_mem_ctrl.rdQLenPdf::21                3933                       # What read queue length does an incoming req see (Count)
system.loc_mem_ctrl.rdQLenPdf::22                3933                       # What read queue length does an incoming req see (Count)
system.loc_mem_ctrl.rdQLenPdf::23                3933                       # What read queue length does an incoming req see (Count)
system.loc_mem_ctrl.rdQLenPdf::24                3933                       # What read queue length does an incoming req see (Count)
system.loc_mem_ctrl.rdQLenPdf::25                3933                       # What read queue length does an incoming req see (Count)
system.loc_mem_ctrl.rdQLenPdf::26                3933                       # What read queue length does an incoming req see (Count)
system.loc_mem_ctrl.rdQLenPdf::27                3933                       # What read queue length does an incoming req see (Count)
system.loc_mem_ctrl.rdQLenPdf::28                3933                       # What read queue length does an incoming req see (Count)
system.loc_mem_ctrl.rdQLenPdf::29                3933                       # What read queue length does an incoming req see (Count)
system.loc_mem_ctrl.rdQLenPdf::30                3933                       # What read queue length does an incoming req see (Count)
system.loc_mem_ctrl.rdQLenPdf::31                3933                       # What read queue length does an incoming req see (Count)
system.loc_mem_ctrl.rdQLenPdf::32                3933                       # What read queue length does an incoming req see (Count)
system.loc_mem_ctrl.rdQLenPdf::33                3933                       # What read queue length does an incoming req see (Count)
system.loc_mem_ctrl.rdQLenPdf::34                3933                       # What read queue length does an incoming req see (Count)
system.loc_mem_ctrl.rdQLenPdf::35                3933                       # What read queue length does an incoming req see (Count)
system.loc_mem_ctrl.rdQLenPdf::36                3933                       # What read queue length does an incoming req see (Count)
system.loc_mem_ctrl.rdQLenPdf::37                3933                       # What read queue length does an incoming req see (Count)
system.loc_mem_ctrl.rdQLenPdf::38                3933                       # What read queue length does an incoming req see (Count)
system.loc_mem_ctrl.rdQLenPdf::39                3933                       # What read queue length does an incoming req see (Count)
system.loc_mem_ctrl.rdQLenPdf::40                3933                       # What read queue length does an incoming req see (Count)
system.loc_mem_ctrl.rdQLenPdf::41                3933                       # What read queue length does an incoming req see (Count)
system.loc_mem_ctrl.rdQLenPdf::42                3933                       # What read queue length does an incoming req see (Count)
system.loc_mem_ctrl.rdQLenPdf::43                3933                       # What read queue length does an incoming req see (Count)
system.loc_mem_ctrl.rdQLenPdf::44                3934                       # What read queue length does an incoming req see (Count)
system.loc_mem_ctrl.rdQLenPdf::45                3933                       # What read queue length does an incoming req see (Count)
system.loc_mem_ctrl.rdQLenPdf::46                3933                       # What read queue length does an incoming req see (Count)
system.loc_mem_ctrl.rdQLenPdf::47                3933                       # What read queue length does an incoming req see (Count)
system.loc_mem_ctrl.rdQLenPdf::48                3934                       # What read queue length does an incoming req see (Count)
system.loc_mem_ctrl.rdQLenPdf::49                3933                       # What read queue length does an incoming req see (Count)
system.loc_mem_ctrl.rdQLenPdf::50                3933                       # What read queue length does an incoming req see (Count)
system.loc_mem_ctrl.rdQLenPdf::51                3934                       # What read queue length does an incoming req see (Count)
system.loc_mem_ctrl.rdQLenPdf::52                3933                       # What read queue length does an incoming req see (Count)
system.loc_mem_ctrl.rdQLenPdf::53                3934                       # What read queue length does an incoming req see (Count)
system.loc_mem_ctrl.rdQLenPdf::54                3933                       # What read queue length does an incoming req see (Count)
system.loc_mem_ctrl.rdQLenPdf::55                3934                       # What read queue length does an incoming req see (Count)
system.loc_mem_ctrl.rdQLenPdf::56                3933                       # What read queue length does an incoming req see (Count)
system.loc_mem_ctrl.rdQLenPdf::57                3933                       # What read queue length does an incoming req see (Count)
system.loc_mem_ctrl.rdQLenPdf::58                3933                       # What read queue length does an incoming req see (Count)
system.loc_mem_ctrl.rdQLenPdf::59                3934                       # What read queue length does an incoming req see (Count)
system.loc_mem_ctrl.rdQLenPdf::60                3933                       # What read queue length does an incoming req see (Count)
system.loc_mem_ctrl.rdQLenPdf::61                3933                       # What read queue length does an incoming req see (Count)
system.loc_mem_ctrl.rdQLenPdf::62                3934                       # What read queue length does an incoming req see (Count)
system.loc_mem_ctrl.rdQLenPdf::63             1077416                       # What read queue length does an incoming req see (Count)
system.loc_mem_ctrl.wrQLenPdf::0                    1                       # What write queue length does an incoming req see (Count)
system.loc_mem_ctrl.wrQLenPdf::1                    1                       # What write queue length does an incoming req see (Count)
system.loc_mem_ctrl.wrQLenPdf::2                    1                       # What write queue length does an incoming req see (Count)
system.loc_mem_ctrl.wrQLenPdf::3                    1                       # What write queue length does an incoming req see (Count)
system.loc_mem_ctrl.wrQLenPdf::4                    1                       # What write queue length does an incoming req see (Count)
system.loc_mem_ctrl.wrQLenPdf::5                    1                       # What write queue length does an incoming req see (Count)
system.loc_mem_ctrl.wrQLenPdf::6                    1                       # What write queue length does an incoming req see (Count)
system.loc_mem_ctrl.wrQLenPdf::7                    1                       # What write queue length does an incoming req see (Count)
system.loc_mem_ctrl.wrQLenPdf::8                    1                       # What write queue length does an incoming req see (Count)
system.loc_mem_ctrl.wrQLenPdf::9                    1                       # What write queue length does an incoming req see (Count)
system.loc_mem_ctrl.wrQLenPdf::10                   1                       # What write queue length does an incoming req see (Count)
system.loc_mem_ctrl.wrQLenPdf::11                   1                       # What write queue length does an incoming req see (Count)
system.loc_mem_ctrl.wrQLenPdf::12                   1                       # What write queue length does an incoming req see (Count)
system.loc_mem_ctrl.wrQLenPdf::13                   1                       # What write queue length does an incoming req see (Count)
system.loc_mem_ctrl.wrQLenPdf::14                   1                       # What write queue length does an incoming req see (Count)
system.loc_mem_ctrl.wrQLenPdf::15                   1                       # What write queue length does an incoming req see (Count)
system.loc_mem_ctrl.wrQLenPdf::16                   1                       # What write queue length does an incoming req see (Count)
system.loc_mem_ctrl.wrQLenPdf::17                   1                       # What write queue length does an incoming req see (Count)
system.loc_mem_ctrl.wrQLenPdf::18                   1                       # What write queue length does an incoming req see (Count)
system.loc_mem_ctrl.wrQLenPdf::19                   1                       # What write queue length does an incoming req see (Count)
system.loc_mem_ctrl.wrQLenPdf::20                   1                       # What write queue length does an incoming req see (Count)
system.loc_mem_ctrl.wrQLenPdf::21                   1                       # What write queue length does an incoming req see (Count)
system.loc_mem_ctrl.wrQLenPdf::22                   1                       # What write queue length does an incoming req see (Count)
system.loc_mem_ctrl.wrQLenPdf::23                   1                       # What write queue length does an incoming req see (Count)
system.loc_mem_ctrl.wrQLenPdf::24                   1                       # What write queue length does an incoming req see (Count)
system.loc_mem_ctrl.wrQLenPdf::25                   1                       # What write queue length does an incoming req see (Count)
system.loc_mem_ctrl.wrQLenPdf::26                   1                       # What write queue length does an incoming req see (Count)
system.loc_mem_ctrl.wrQLenPdf::27                   1                       # What write queue length does an incoming req see (Count)
system.loc_mem_ctrl.wrQLenPdf::28                   1                       # What write queue length does an incoming req see (Count)
system.loc_mem_ctrl.wrQLenPdf::29                   1                       # What write queue length does an incoming req see (Count)
system.loc_mem_ctrl.wrQLenPdf::30                   1                       # What write queue length does an incoming req see (Count)
system.loc_mem_ctrl.wrQLenPdf::31                   1                       # What write queue length does an incoming req see (Count)
system.loc_mem_ctrl.wrQLenPdf::32                   1                       # What write queue length does an incoming req see (Count)
system.loc_mem_ctrl.wrQLenPdf::33                   1                       # What write queue length does an incoming req see (Count)
system.loc_mem_ctrl.wrQLenPdf::34                   1                       # What write queue length does an incoming req see (Count)
system.loc_mem_ctrl.wrQLenPdf::35                   1                       # What write queue length does an incoming req see (Count)
system.loc_mem_ctrl.wrQLenPdf::36                   1                       # What write queue length does an incoming req see (Count)
system.loc_mem_ctrl.wrQLenPdf::37                   1                       # What write queue length does an incoming req see (Count)
system.loc_mem_ctrl.wrQLenPdf::38                   1                       # What write queue length does an incoming req see (Count)
system.loc_mem_ctrl.wrQLenPdf::39                   1                       # What write queue length does an incoming req see (Count)
system.loc_mem_ctrl.wrQLenPdf::40                   1                       # What write queue length does an incoming req see (Count)
system.loc_mem_ctrl.wrQLenPdf::41                   1                       # What write queue length does an incoming req see (Count)
system.loc_mem_ctrl.wrQLenPdf::42                   1                       # What write queue length does an incoming req see (Count)
system.loc_mem_ctrl.wrQLenPdf::43                   1                       # What write queue length does an incoming req see (Count)
system.loc_mem_ctrl.wrQLenPdf::44                   1                       # What write queue length does an incoming req see (Count)
system.loc_mem_ctrl.wrQLenPdf::45                   1                       # What write queue length does an incoming req see (Count)
system.loc_mem_ctrl.wrQLenPdf::46                   1                       # What write queue length does an incoming req see (Count)
system.loc_mem_ctrl.wrQLenPdf::47                3933                       # What write queue length does an incoming req see (Count)
system.loc_mem_ctrl.wrQLenPdf::48                3933                       # What write queue length does an incoming req see (Count)
system.loc_mem_ctrl.wrQLenPdf::49                3933                       # What write queue length does an incoming req see (Count)
system.loc_mem_ctrl.wrQLenPdf::50                3933                       # What write queue length does an incoming req see (Count)
system.loc_mem_ctrl.wrQLenPdf::51                3932                       # What write queue length does an incoming req see (Count)
system.loc_mem_ctrl.wrQLenPdf::52                3932                       # What write queue length does an incoming req see (Count)
system.loc_mem_ctrl.wrQLenPdf::53                3932                       # What write queue length does an incoming req see (Count)
system.loc_mem_ctrl.wrQLenPdf::54                3932                       # What write queue length does an incoming req see (Count)
system.loc_mem_ctrl.wrQLenPdf::55                3932                       # What write queue length does an incoming req see (Count)
system.loc_mem_ctrl.wrQLenPdf::56                3932                       # What write queue length does an incoming req see (Count)
system.loc_mem_ctrl.wrQLenPdf::57                3932                       # What write queue length does an incoming req see (Count)
system.loc_mem_ctrl.wrQLenPdf::58                3932                       # What write queue length does an incoming req see (Count)
system.loc_mem_ctrl.wrQLenPdf::59                3932                       # What write queue length does an incoming req see (Count)
system.loc_mem_ctrl.wrQLenPdf::60                3932                       # What write queue length does an incoming req see (Count)
system.loc_mem_ctrl.wrQLenPdf::61                3932                       # What write queue length does an incoming req see (Count)
system.loc_mem_ctrl.wrQLenPdf::62                3932                       # What write queue length does an incoming req see (Count)
system.loc_mem_ctrl.wrQLenPdf::63                3932                       # What write queue length does an incoming req see (Count)
system.loc_mem_ctrl.wrQLenPdf::64                3932                       # What write queue length does an incoming req see (Count)
system.loc_mem_ctrl.wrQLenPdf::65                3932                       # What write queue length does an incoming req see (Count)
system.loc_mem_ctrl.wrQLenPdf::66                3932                       # What write queue length does an incoming req see (Count)
system.loc_mem_ctrl.wrQLenPdf::67                3932                       # What write queue length does an incoming req see (Count)
system.loc_mem_ctrl.wrQLenPdf::68                3932                       # What write queue length does an incoming req see (Count)
system.loc_mem_ctrl.wrQLenPdf::69                3932                       # What write queue length does an incoming req see (Count)
system.loc_mem_ctrl.wrQLenPdf::70                3932                       # What write queue length does an incoming req see (Count)
system.loc_mem_ctrl.wrQLenPdf::71                3932                       # What write queue length does an incoming req see (Count)
system.loc_mem_ctrl.wrQLenPdf::72                3932                       # What write queue length does an incoming req see (Count)
system.loc_mem_ctrl.wrQLenPdf::73                3932                       # What write queue length does an incoming req see (Count)
system.loc_mem_ctrl.wrQLenPdf::74                3932                       # What write queue length does an incoming req see (Count)
system.loc_mem_ctrl.wrQLenPdf::75                3932                       # What write queue length does an incoming req see (Count)
system.loc_mem_ctrl.wrQLenPdf::76                3932                       # What write queue length does an incoming req see (Count)
system.loc_mem_ctrl.wrQLenPdf::77                3932                       # What write queue length does an incoming req see (Count)
system.loc_mem_ctrl.wrQLenPdf::78                3932                       # What write queue length does an incoming req see (Count)
system.loc_mem_ctrl.wrQLenPdf::79                3932                       # What write queue length does an incoming req see (Count)
system.loc_mem_ctrl.wrQLenPdf::80                3932                       # What write queue length does an incoming req see (Count)
system.loc_mem_ctrl.wrQLenPdf::81                3932                       # What write queue length does an incoming req see (Count)
system.loc_mem_ctrl.wrQLenPdf::82                3932                       # What write queue length does an incoming req see (Count)
system.loc_mem_ctrl.wrQLenPdf::83                3932                       # What write queue length does an incoming req see (Count)
system.loc_mem_ctrl.wrQLenPdf::84                3932                       # What write queue length does an incoming req see (Count)
system.loc_mem_ctrl.wrQLenPdf::85                3932                       # What write queue length does an incoming req see (Count)
system.loc_mem_ctrl.wrQLenPdf::86                3932                       # What write queue length does an incoming req see (Count)
system.loc_mem_ctrl.wrQLenPdf::87                3932                       # What write queue length does an incoming req see (Count)
system.loc_mem_ctrl.wrQLenPdf::88                3932                       # What write queue length does an incoming req see (Count)
system.loc_mem_ctrl.wrQLenPdf::89                3932                       # What write queue length does an incoming req see (Count)
system.loc_mem_ctrl.wrQLenPdf::90                3932                       # What write queue length does an incoming req see (Count)
system.loc_mem_ctrl.wrQLenPdf::91                3932                       # What write queue length does an incoming req see (Count)
system.loc_mem_ctrl.wrQLenPdf::92                3932                       # What write queue length does an incoming req see (Count)
system.loc_mem_ctrl.wrQLenPdf::93                3932                       # What write queue length does an incoming req see (Count)
system.loc_mem_ctrl.wrQLenPdf::94                3932                       # What write queue length does an incoming req see (Count)
system.loc_mem_ctrl.wrQLenPdf::95                3932                       # What write queue length does an incoming req see (Count)
system.loc_mem_ctrl.wrQLenPdf::96                3932                       # What write queue length does an incoming req see (Count)
system.loc_mem_ctrl.wrQLenPdf::97                3932                       # What write queue length does an incoming req see (Count)
system.loc_mem_ctrl.wrQLenPdf::98                3932                       # What write queue length does an incoming req see (Count)
system.loc_mem_ctrl.wrQLenPdf::99                3932                       # What write queue length does an incoming req see (Count)
system.loc_mem_ctrl.wrQLenPdf::100               3932                       # What write queue length does an incoming req see (Count)
system.loc_mem_ctrl.wrQLenPdf::101               3932                       # What write queue length does an incoming req see (Count)
system.loc_mem_ctrl.wrQLenPdf::102               3932                       # What write queue length does an incoming req see (Count)
system.loc_mem_ctrl.wrQLenPdf::103               3932                       # What write queue length does an incoming req see (Count)
system.loc_mem_ctrl.wrQLenPdf::104               3932                       # What write queue length does an incoming req see (Count)
system.loc_mem_ctrl.wrQLenPdf::105               3932                       # What write queue length does an incoming req see (Count)
[...]
system.loc_mem_ctrl.dram.perBankWrBursts::17        41434                       # Per bank write bursts (Count)
system.loc_mem_ctrl.dram.perBankWrBursts::18        41497                       # Per bank write bursts (Count)
system.loc_mem_ctrl.dram.perBankWrBursts::19        41374                       # Per bank write bursts (Count)
system.loc_mem_ctrl.dram.perBankWrBursts::20        41036                       # Per bank write bursts (Count)
system.loc_mem_ctrl.dram.perBankWrBursts::21        41273                       # Per bank write bursts (Count)
system.loc_mem_ctrl.dram.perBankWrBursts::22        41597                       # Per bank write bursts (Count)
system.loc_mem_ctrl.dram.perBankWrBursts::23        41368                       # Per bank write bursts (Count)
system.loc_mem_ctrl.dram.perBankWrBursts::24        41366                       # Per bank write bursts (Count)
system.loc_mem_ctrl.dram.perBankWrBursts::25        41180                       # Per bank write bursts (Count)
system.loc_mem_ctrl.dram.perBankWrBursts::26        41354                       # Per bank write bursts (Count)
system.loc_mem_ctrl.dram.perBankWrBursts::27        41406                       # Per bank write bursts (Count)
system.loc_mem_ctrl.dram.perBankWrBursts::28        41561                       # Per bank write bursts (Count)
system.loc_mem_ctrl.dram.perBankWrBursts::29        41178                       # Per bank write bursts (Count)
system.loc_mem_ctrl.dram.perBankWrBursts::30        41430                       # Per bank write bursts (Count)
system.loc_mem_ctrl.dram.perBankWrBursts::31        41725                       # Per bank write bursts (Count)
system.loc_mem_ctrl.dram.totQLat         543855073548                       # Total ticks spent queuing (Tick)
system.loc_mem_ctrl.dram.totBusLat         4415403132                       # Total ticks spent in databus transfers (Tick)
system.loc_mem_ctrl.dram.totMemAccLat    567034614840                       # Total ticks spent from burst creation until serviced by the DRAM (Tick)
system.loc_mem_ctrl.dram.avgQLat            410409.89                       # Average queueing delay per DRAM burst ((Tick/Count))
system.loc_mem_ctrl.dram.avgBusLat            3332.00                       # Average bus latency per DRAM burst ((Tick/Count))
system.loc_mem_ctrl.dram.avgMemAccLat       427901.89                       # Average memory access latency per DRAM burst ((Tick/Count))
system.loc_mem_ctrl.dram.readRowHits              208                       # Number of row buffer hits during reads (Count)
system.loc_mem_ctrl.dram.writeRowHits             553                       # Number of row buffer hits during writes (Count)
system.loc_mem_ctrl.dram.readRowHitRate          0.02                       # Row buffer hit rate for reads (Ratio)
system.loc_mem_ctrl.dram.writeRowHitRate         0.04                       # Row buffer hit rate for writes (Ratio)
system.loc_mem_ctrl.dram.bytesPerActivate::samples      2649464                       # Bytes accessed per row activation (Byte)
system.loc_mem_ctrl.dram.bytesPerActivate::mean    64.018383                       # Bytes accessed per row activation (Byte)
system.loc_mem_ctrl.dram.bytesPerActivate::gmean    64.012743                       # Bytes accessed per row activation (Byte)
system.loc_mem_ctrl.dram.bytesPerActivate::stdev     1.084504                       # Bytes accessed per row activation (Byte)
system.loc_mem_ctrl.dram.bytesPerActivate::64-79      2648703     99.97%     99.97% # Bytes accessed per row activation (Byte)
system.loc_mem_ctrl.dram.bytesPerActivate::128-143          761      0.03%    100.00% # Bytes accessed per row activation (Byte)
system.loc_mem_ctrl.dram.bytesPerActivate::total      2649464                       # Bytes accessed per row activation (Byte)
system.loc_mem_ctrl.dram.bytesRead           84809664                       # Total bytes read (Byte)
system.loc_mem_ctrl.dram.bytesWritten        84805440                       # Total bytes written (Byte)
system.loc_mem_ctrl.dram.avgRdBW          8480.849425                       # Average DRAM read bandwidth in MiBytes/s ((Byte/Second))
system.loc_mem_ctrl.dram.avgWrBW          8480.427031                       # Average DRAM write bandwidth in MiBytes/s ((Byte/Second))
system.loc_mem_ctrl.dram.peakBW              19207.00                       # Theoretical peak bandwidth in MiByte/s ((Byte/Second))
system.loc_mem_ctrl.dram.busUtil                88.31                       # Data bus utilization in percentage (Ratio)
system.loc_mem_ctrl.dram.busUtilRead            44.15                       # Data bus utilization in percentage for reads (Ratio)
system.loc_mem_ctrl.dram.busUtilWrite           44.15                       # Data bus utilization in percentage for writes (Ratio)
system.loc_mem_ctrl.dram.pageHitRate             0.03                       # Row buffer hit rate, read and write combined (Ratio)
system.loc_mem_ctrl.dram.power_state.pwrStateResidencyTicks::UNDEFINED  10000137928                       # Cumulative time (in ticks) in various power states (Tick)
system.loc_mem_ctrl.dram.rank0.actEnergy 4133506575.743999                       # Energy for activate commands per rank (pJ) (Joule)
system.loc_mem_ctrl.dram.rank0.preEnergy 5495410828.051197                       # Energy for precharge commands per rank (pJ) (Joule)
system.loc_mem_ctrl.dram.rank0.readEnergy 2788266455.116802                       # Energy for read commands per rank (pJ) (Joule)
system.loc_mem_ctrl.dram.rank0.writeEnergy 2491364175.551997                       # Energy for write commands per rank (pJ) (Joule)
system.loc_mem_ctrl.dram.rank0.refreshEnergy 1778824873.324749                       # Energy for refresh commands per rank (pJ) (Joule)
system.loc_mem_ctrl.dram.rank0.actBackEnergy 8451709723.295990                       # Energy for active background per rank (pJ) (Joule)
system.loc_mem_ctrl.dram.rank0.preBackEnergy 34121258.035200                       # Energy for precharge background per rank (pJ) (Joule)
system.loc_mem_ctrl.dram.rank0.actPowerDownEnergy            0                       # Energy for active power-down per rank (pJ) (Joule)
system.loc_mem_ctrl.dram.rank0.prePowerDownEnergy            0                       # Energy for precharge power-down per rank (pJ) (Joule)
system.loc_mem_ctrl.dram.rank0.selfRefreshEnergy            0                       # Energy for self refresh per rank (pJ) (Joule)
system.loc_mem_ctrl.dram.rank0.totalEnergy 25173203889.119995                       # Total energy per rank (pJ) (Joule)
system.loc_mem_ctrl.dram.rank0.averagePower  2517.285668                       # Core power per rank (mW) (Watt)
system.loc_mem_ctrl.dram.rank0.totalIdleTime            0                       # Total Idle time Per DRAM Rank (Tick)
system.loc_mem_ctrl.dram.rank0.pwrStateTime::IDLE     16325878                       # Time in different power states (Tick)
system.loc_mem_ctrl.dram.rank0.pwrStateTime::REF    449400000                       # Time in different power states (Tick)
system.loc_mem_ctrl.dram.rank0.pwrStateTime::SREF            0                       # Time in different power states (Tick)
system.loc_mem_ctrl.dram.rank0.pwrStateTime::PRE_PDN            0                       # Time in different power states (Tick)
system.loc_mem_ctrl.dram.rank0.pwrStateTime::ACT   9534412050                       # Time in different power states (Tick)
system.loc_mem_ctrl.dram.rank0.pwrStateTime::ACT_PDN            0                       # Time in different power states (Tick)
system.loc_mem_ctrl.dram.rank1.actEnergy 4129536404.448001                       # Energy for activate commands per rank (pJ) (Joule)
system.loc_mem_ctrl.dram.rank1.preEnergy 5490124243.531205                       # Energy for precharge commands per rank (pJ) (Joule)
system.loc_mem_ctrl.dram.rank1.readEnergy 2785700601.868802                       # Energy for read commands per rank (pJ) (Joule)
system.loc_mem_ctrl.dram.rank1.writeEnergy 2488962496.607997                       # Energy for write commands per rank (pJ) (Joule)
system.loc_mem_ctrl.dram.rank1.refreshEnergy 1778824873.324749                       # Energy for refresh commands per rank (pJ) (Joule)
system.loc_mem_ctrl.dram.rank1.actBackEnergy 8451290047.233607                       # Energy for active background per rank (pJ) (Joule)
system.loc_mem_ctrl.dram.rank1.preBackEnergy 34443720.998400                       # Energy for precharge background per rank (pJ) (Joule)
system.loc_mem_ctrl.dram.rank1.actPowerDownEnergy            0                       # Energy for active power-down per rank (pJ) (Joule)
system.loc_mem_ctrl.dram.rank1.prePowerDownEnergy            0                       # Energy for precharge power-down per rank (pJ) (Joule)
system.loc_mem_ctrl.dram.rank1.selfRefreshEnergy            0                       # Energy for self refresh per rank (pJ) (Joule)
system.loc_mem_ctrl.dram.rank1.totalEnergy 25158882388.012775                       # Total energy per rank (pJ) (Joule)
system.loc_mem_ctrl.dram.rank1.averagePower  2515.853538                       # Core power per rank (mW) (Watt)
system.loc_mem_ctrl.dram.rank1.totalIdleTime            0                       # Total Idle time Per DRAM Rank (Tick)
system.loc_mem_ctrl.dram.rank1.pwrStateTime::IDLE     16897830                       # Time in different power states (Tick)
system.loc_mem_ctrl.dram.rank1.pwrStateTime::REF    449400000                       # Time in different power states (Tick)
system.loc_mem_ctrl.dram.rank1.pwrStateTime::SREF            0                       # Time in different power states (Tick)
system.loc_mem_ctrl.dram.rank1.pwrStateTime::PRE_PDN            0                       # Time in different power states (Tick)
system.loc_mem_ctrl.dram.rank1.pwrStateTime::ACT   9533840098                       # Time in different power states (Tick)
system.loc_mem_ctrl.dram.rank1.pwrStateTime::ACT_PDN            0                       # Time in different power states (Tick)
system.loc_mem_ctrl.power_state.pwrStateResidencyTicks::UNDEFINED  10000137928                       # Cumulative time (in ticks) in various power states (Tick)
system.mem_ctrl.bytesWritten::generator      84824896                       # Number of bytes written to this memory (Byte)
system.mem_ctrl.bytesWritten::total          84824896                       # Number of bytes written to this memory (Byte)
system.mem_ctrl.numWrites::generator          1325389                       # Number of write requests responded to by this memory (Count)
system.mem_ctrl.numWrites::total              1325389                       # Number of write requests responded to by this memory (Count)
system.mem_ctrl.bwWrite::generator         8482372604                       # Write bandwidth from this memory ((Byte/Second))
system.mem_ctrl.bwWrite::total             8482372604                       # Write bandwidth from this memory ((Byte/Second))
system.mem_ctrl.bwTotal::generator         8482372604                       # Total bandwidth to/from this memory ((Byte/Second))
system.mem_ctrl.bwTotal::total             8482372604                       # Total bandwidth to/from this memory ((Byte/Second))
system.mem_ctrl.readReqs                            0                       # Number of read requests accepted (Count)
system.mem_ctrl.writeReqs                     1325389                       # Number of write requests accepted (Count)
system.mem_ctrl.servicedByWrQ                       0                       # Number of controller read bursts serviced by the write queue (Count)
system.mem_ctrl.mergedWrBursts                      6                       # Number of controller write bursts merged with an existing one (Count)
system.mem_ctrl.numRdRetry                          0                       # Number of times read queue was full causing retry (Count)
system.mem_ctrl.numWrRetry                    1324702                       # Number of times write queue was full causing retry (Count)
system.mem_ctrl.readPktSize::0                      0                       # Read request sizes (log2) (Count)
system.mem_ctrl.readPktSize::1                      0                       # Read request sizes (log2) (Count)
system.mem_ctrl.readPktSize::2                      0                       # Read request sizes (log2) (Count)
system.mem_ctrl.readPktSize::3                      0                       # Read request sizes (log2) (Count)
system.mem_ctrl.readPktSize::4                      0                       # Read request sizes (log2) (Count)
system.mem_ctrl.readPktSize::5                      0                       # Read request sizes (log2) (Count)
system.mem_ctrl.readPktSize::6                      0                       # Read request sizes (log2) (Count)
system.mem_ctrl.writePktSize::0                     0                       # Write request sizes (log2) (Count)
system.mem_ctrl.writePktSize::1                     0                       # Write request sizes (log2) (Count)
system.mem_ctrl.writePktSize::2                     0                       # Write request sizes (log2) (Count)
system.mem_ctrl.writePktSize::3                     0                       # Write request sizes (log2) (Count)
system.mem_ctrl.writePktSize::4                     0                       # Write request sizes (log2) (Count)
system.mem_ctrl.writePktSize::5                     0                       # Write request sizes (log2) (Count)
system.mem_ctrl.writePktSize::6               1325389                       # Write request sizes (log2) (Count)
system.mem_ctrl.bytesReadWrQ                        0                       # Total number of bytes read from write queue (Byte)
system.mem_ctrl.bytesReadSys                        0                       # Total read bytes from the system interface side (Byte)
system.mem_ctrl.bytesWrittenSys              84824896                       # Total written bytes from the system interface side (Byte)
system.mem_ctrl.avgRdBWSys                 0.00000000                       # Average system read bandwidth in Byte/s ((Byte/Second))
system.mem_ctrl.avgWrBWSys               8482372604.33114243                       # Average system write bandwidth in Byte/s ((Byte/Second))
system.mem_ctrl.totGap                   1729088743625726720                       # Total gap between requests (Tick)
system.mem_ctrl.avgGap                   1304589628875.54                       # Average gap between requests ((Tick/Count))
system.mem_ctrl.avgORBLen                    255.9960                       # Average ORB length ((Count/Tick))
system.mem_ctrl.avgLocRdQLenStrt               143.24                       # Average local read queue length ((Count/Tick))
system.mem_ctrl.avgLocWrQLenStrt                46.66                       # Average local write queue length ((Count/Tick))
system.mem_ctrl.avgFarRdQLenStrt                 0.00                       # Average far read queue length ((Count/Tick))
system.mem_ctrl.avgFarWrQLenStrt                 0.00                       # Average far write queue length ((Count/Tick))
system.mem_ctrl.avgLocRdQLenEnq                144.24                       # Average local read queue length when enqueuing ((Count/Tick))
system.mem_ctrl.avgLocWrQLenEnq                172.54                       # Average local write queue length when enqueuing ((Count/Tick))
system.mem_ctrl.avgFarRdQLenEnq                  0.00                       # Average far read queue length when enqueuing ((Count/Tick))
system.mem_ctrl.avgFarWrQLenEnq                  1.00                       # Average far write queue length when enqueuing ((Count/Tick))
system.mem_ctrl.numWrBacks                    1325136                       # Total number of write backs from DRAM cache to main memory (Unspecified)
system.mem_ctrl.totNumConf                        356                       # Total number of packets conflicted on DRAM cache (Unspecified)
system.mem_ctrl.totNumORBFull                 1324702                       # Total number of packets ORB full (Unspecified)
system.mem_ctrl.totNumCRBFull                       0                       # Total number of packets conflicted yet couldn't enter confBuffer (Unspecified)
system.mem_ctrl.maxNumConf                          2                       # Maximum number of packets conflicted on DRAM cache (Unspecified)
system.mem_ctrl.sentLocRdPort                 1325206                       # stat (Unspecified)
system.mem_ctrl.sentLocWrPort                 1325136                       # stat (Unspecified)
system.mem_ctrl.failedLocRdPort               2678386                       # stat (Unspecified)
system.mem_ctrl.failedLocWrPort               2731769                       # stat (Unspecified)
system.mem_ctrl.recvdRdPort                         0                       # stat (Unspecified)
system.mem_ctrl.sentFarRdPort                       0                       # stat (Unspecified)
system.mem_ctrl.sentFarWrPort                 1325136                       # stat (Unspecified)
system.mem_ctrl.failedFarRdPort                     0                       # stat (Unspecified)
system.mem_ctrl.failedFarWrPort                     0                       # stat (Unspecified)
system.mem_ctrl.totPktsServiceTime         2559467849                       # stat (Unspecified)
system.mem_ctrl.totPktsORBTime             2559145223                       # stat (Unspecified)
system.mem_ctrl.totTimeFarRdtoSend                  0                       # stat (Unspecified)
system.mem_ctrl.totTimeFarRdtoRecv                  0                       # stat (Unspecified)
system.mem_ctrl.totTimeFarWrtoSend                  0                       # stat (Unspecified)
system.mem_ctrl.totTimeInLocRead           1584774376                       # stat (Unspecified)
system.mem_ctrl.totTimeInLocWrite           973859968                       # stat (Unspecified)
system.mem_ctrl.totTimeInFarRead                    0                       # stat (Unspecified)
system.mem_ctrl.numTotHits                          0                       # stat (Unspecified)
system.mem_ctrl.numTotMisses                  1325389                       # stat (Unspecified)
system.mem_ctrl.numColdMisses                  752035                       # stat (Unspecified)
system.mem_ctrl.numHotMisses                   573354                       # stat (Unspecified)
system.mem_ctrl.numRdMissClean                      0                       # stat (Unspecified)
system.mem_ctrl.numRdMissDirty                      0                       # stat (Unspecified)
system.mem_ctrl.numRdHit                            0                       # stat (Unspecified)
system.mem_ctrl.numWrMissClean                 752035                       # stat (Unspecified)
system.mem_ctrl.numWrMissDirty                 573354                       # stat (Unspecified)
system.mem_ctrl.numWrHit                            0                       # stat (Unspecified)
system.mem_ctrl.numRdHitDirty                       0                       # stat (Unspecified)
system.mem_ctrl.numRdHitClean                       0                       # stat (Unspecified)
system.mem_ctrl.numWrHitDirty                       0                       # stat (Unspecified)
system.mem_ctrl.numWrHitClean                       0                       # stat (Unspecified)
system.mem_ctrl.power_state.pwrStateResidencyTicks::UNDEFINED  10000137928                       # Cumulative time (in ticks) in various power states (Tick)
system.workload.inst.arm                            0                       # number of arm instructions executed (Count)
system.workload.inst.quiesce                        0                       # number of quiesce instructions executed (Count)

---------- End Simulation Statistics   ----------
