
---------- Begin Simulation Statistics ----------
simSeconds                                          5                       # Number of seconds simulated (Second)
simTicks                                 5000000000000                       # Number of ticks simulated (Tick)
finalTick                                21896476184750                       # Number of ticks from beginning of simulation (restored from checkpoints and never reset) (Tick)
simFreq                                  1000000000000                       # The number of ticks per simulated second ((Tick/Second))
hostSeconds                                  39518.18                       # Real time elapsed on the host (Second)
hostTickRate                                126524049                       # The number of ticks simulated per host second (ticks/s) ((Tick/Second))
hostMemory                                    7252472                       # Number of bytes of host memory used (Byte)
simInsts                                  14423069844                       # Number of instructions simulated (Count)
simOps                                    23403719283                       # Number of ops (including micro ops) simulated (Count)
hostInstRate                                   364973                       # Simulator instruction rate (inst/s) ((Count/Second))
hostOpRate                                     592227                       # Simulator op (including micro ops) rate (op/s) ((Count/Second))
system.atomicCpu0.numCycles                         0                       # Number of cpu cycles simulated (Cycle)
system.atomicCpu0.numWorkItemsStarted               0                       # Number of work items this cpu started (Count)
system.atomicCpu0.numWorkItemsCompleted             0                       # Number of work items this cpu completed (Count)
system.atomicCpu0.exec_context.thread_0.numInsts            0                       # Number of instructions committed (Count)
system.atomicCpu0.exec_context.thread_0.numOps            0                       # Number of ops (including micro ops) committed (Count)
system.atomicCpu0.exec_context.thread_0.numIntAluAccesses            0                       # Number of integer alu accesses (Count)
system.atomicCpu0.exec_context.thread_0.numFpAluAccesses            0                       # Number of float alu accesses (Count)
system.atomicCpu0.exec_context.thread_0.numVecAluAccesses            0                       # Number of vector alu accesses (Count)
system.atomicCpu0.exec_context.thread_0.numCallsReturns            0                       # Number of times a function call or return occured (Count)
system.atomicCpu0.exec_context.thread_0.numCondCtrlInsts            0                       # Number of instructions that are conditional controls (Count)
system.atomicCpu0.exec_context.thread_0.numIntInsts            0                       # Number of integer instructions (Count)
system.atomicCpu0.exec_context.thread_0.numFpInsts            0                       # Number of float instructions (Count)
system.atomicCpu0.exec_context.thread_0.numVecInsts            0                       # Number of vector instructions (Count)
system.atomicCpu0.exec_context.thread_0.numIntRegReads            0                       # Number of times the integer registers were read (Count)
system.atomicCpu0.exec_context.thread_0.numIntRegWrites            0                       # Number of times the integer registers were written (Count)
system.atomicCpu0.exec_context.thread_0.numFpRegReads            0                       # Number of times the floating registers were read (Count)
system.atomicCpu0.exec_context.thread_0.numFpRegWrites            0                       # Number of times the floating registers were written (Count)
system.atomicCpu0.exec_context.thread_0.numVecRegReads            0                       # Number of times the vector registers were read (Count)
system.atomicCpu0.exec_context.thread_0.numVecRegWrites            0                       # Number of times the vector registers were written (Count)
system.atomicCpu0.exec_context.thread_0.numVecPredRegReads            0                       # Number of times the predicate registers were read (Count)
system.atomicCpu0.exec_context.thread_0.numVecPredRegWrites            0                       # Number of times the predicate registers were written (Count)
system.atomicCpu0.exec_context.thread_0.numMiscRegReads            0                       # Number of times the Misc registers were read (Count)
system.atomicCpu0.exec_context.thread_0.numMiscRegWrites            0                       # Number of times the Misc registers were written (Count)
system.atomicCpu0.exec_context.thread_0.numMemRefs            0                       # Number of memory refs (Count)
system.atomicCpu0.exec_context.thread_0.numLoadInsts            0                       # Number of load instructions (Count)
system.atomicCpu0.exec_context.thread_0.numStoreInsts            0                       # Number of store instructions (Count)
system.atomicCpu0.exec_context.thread_0.numIdleCycles            0                       # Number of idle cycles (Cycle)
system.atomicCpu0.exec_context.thread_0.numBusyCycles            0                       # Number of busy cycles (Cycle)
system.atomicCpu0.exec_context.thread_0.notIdleFraction            0                       # Percentage of non-idle cycles (Ratio)
system.atomicCpu0.exec_context.thread_0.idleFraction            1                       # Percentage of idle cycles (Ratio)
system.atomicCpu0.exec_context.thread_0.statExecutedInstType::No_OpClass            0                       # Class of executed instruction. (Count)
system.atomicCpu0.exec_context.thread_0.statExecutedInstType::IntAlu            0                       # Class of executed instruction. (Count)
system.atomicCpu0.exec_context.thread_0.statExecutedInstType::IntMult            0                       # Class of executed instruction. (Count)
system.atomicCpu0.exec_context.thread_0.statExecutedInstType::IntDiv            0                       # Class of executed instruction. (Count)
system.atomicCpu0.exec_context.thread_0.statExecutedInstType::FloatAdd            0                       # Class of executed instruction. (Count)
system.atomicCpu0.exec_context.thread_0.statExecutedInstType::FloatCmp            0                       # Class of executed instruction. (Count)
system.atomicCpu0.exec_context.thread_0.statExecutedInstType::FloatCvt            0                       # Class of executed instruction. (Count)
system.atomicCpu0.exec_context.thread_0.statExecutedInstType::FloatMult            0                       # Class of executed instruction. (Count)
system.atomicCpu0.exec_context.thread_0.statExecutedInstType::FloatMultAcc            0                       # Class of executed instruction. (Count)
system.atomicCpu0.exec_context.thread_0.statExecutedInstType::FloatDiv            0                       # Class of executed instruction. (Count)
system.atomicCpu0.exec_context.thread_0.statExecutedInstType::FloatMisc            0                       # Class of executed instruction. (Count)
system.atomicCpu0.exec_context.thread_0.statExecutedInstType::FloatSqrt            0                       # Class of executed instruction. (Count)
system.atomicCpu0.exec_context.thread_0.statExecutedInstType::SimdAdd            0                       # Class of executed instruction. (Count)
system.atomicCpu0.exec_context.thread_0.statExecutedInstType::SimdAddAcc            0                       # Class of executed instruction. (Count)
system.atomicCpu0.exec_context.thread_0.statExecutedInstType::SimdAlu            0                       # Class of executed instruction. (Count)
system.atomicCpu0.exec_context.thread_0.statExecutedInstType::SimdCmp            0                       # Class of executed instruction. (Count)
system.atomicCpu0.exec_context.thread_0.statExecutedInstType::SimdCvt            0                       # Class of executed instruction. (Count)
system.atomicCpu0.exec_context.thread_0.statExecutedInstType::SimdMisc            0                       # Class of executed instruction. (Count)
system.atomicCpu0.exec_context.thread_0.statExecutedInstType::SimdMult            0                       # Class of executed instruction. (Count)
system.atomicCpu0.exec_context.thread_0.statExecutedInstType::SimdMultAcc            0                       # Class of executed instruction. (Count)
system.atomicCpu0.exec_context.thread_0.statExecutedInstType::SimdShift            0                       # Class of executed instruction. (Count)
system.atomicCpu0.exec_context.thread_0.statExecutedInstType::SimdShiftAcc            0                       # Class of executed instruction. (Count)
system.atomicCpu0.exec_context.thread_0.statExecutedInstType::SimdDiv            0                       # Class of executed instruction. (Count)
system.atomicCpu0.exec_context.thread_0.statExecutedInstType::SimdSqrt            0                       # Class of executed instruction. (Count)
system.atomicCpu0.exec_context.thread_0.statExecutedInstType::SimdFloatAdd            0                       # Class of executed instruction. (Count)
system.atomicCpu0.exec_context.thread_0.statExecutedInstType::SimdFloatAlu            0                       # Class of executed instruction. (Count)
system.atomicCpu0.exec_context.thread_0.statExecutedInstType::SimdFloatCmp            0                       # Class of executed instruction. (Count)
system.atomicCpu0.exec_context.thread_0.statExecutedInstType::SimdFloatCvt            0                       # Class of executed instruction. (Count)
system.atomicCpu0.exec_context.thread_0.statExecutedInstType::SimdFloatDiv            0                       # Class of executed instruction. (Count)
system.atomicCpu0.exec_context.thread_0.statExecutedInstType::SimdFloatMisc            0                       # Class of executed instruction. (Count)
system.atomicCpu0.exec_context.thread_0.statExecutedInstType::SimdFloatMult            0                       # Class of executed instruction. (Count)
system.atomicCpu0.exec_context.thread_0.statExecutedInstType::SimdFloatMultAcc            0                       # Class of executed instruction. (Count)
system.atomicCpu0.exec_context.thread_0.statExecutedInstType::SimdFloatSqrt            0                       # Class of executed instruction. (Count)
system.atomicCpu0.exec_context.thread_0.statExecutedInstType::SimdReduceAdd            0                       # Class of executed instruction. (Count)
system.atomicCpu0.exec_context.thread_0.statExecutedInstType::SimdReduceAlu            0                       # Class of executed instruction. (Count)
system.atomicCpu0.exec_context.thread_0.statExecutedInstType::SimdReduceCmp            0                       # Class of executed instruction. (Count)
system.atomicCpu0.exec_context.thread_0.statExecutedInstType::SimdFloatReduceAdd            0                       # Class of executed instruction. (Count)
system.atomicCpu0.exec_context.thread_0.statExecutedInstType::SimdFloatReduceCmp            0                       # Class of executed instruction. (Count)
system.atomicCpu0.exec_context.thread_0.statExecutedInstType::SimdAes            0                       # Class of executed instruction. (Count)
system.atomicCpu0.exec_context.thread_0.statExecutedInstType::SimdAesMix            0                       # Class of executed instruction. (Count)
system.atomicCpu0.exec_context.thread_0.statExecutedInstType::SimdSha1Hash            0                       # Class of executed instruction. (Count)
system.atomicCpu0.exec_context.thread_0.statExecutedInstType::SimdSha1Hash2            0                       # Class of executed instruction. (Count)
system.atomicCpu0.exec_context.thread_0.statExecutedInstType::SimdSha256Hash            0                       # Class of executed instruction. (Count)
system.atomicCpu0.exec_context.thread_0.statExecutedInstType::SimdSha256Hash2            0                       # Class of executed instruction. (Count)
system.atomicCpu0.exec_context.thread_0.statExecutedInstType::SimdShaSigma2            0                       # Class of executed instruction. (Count)
system.atomicCpu0.exec_context.thread_0.statExecutedInstType::SimdShaSigma3            0                       # Class of executed instruction. (Count)
system.atomicCpu0.exec_context.thread_0.statExecutedInstType::SimdPredAlu            0                       # Class of executed instruction. (Count)
system.atomicCpu0.exec_context.thread_0.statExecutedInstType::MemRead            0                       # Class of executed instruction. (Count)
system.atomicCpu0.exec_context.thread_0.statExecutedInstType::MemWrite            0                       # Class of executed instruction. (Count)
system.atomicCpu0.exec_context.thread_0.statExecutedInstType::FloatMemRead            0                       # Class of executed instruction. (Count)
system.atomicCpu0.exec_context.thread_0.statExecutedInstType::FloatMemWrite            0                       # Class of executed instruction. (Count)
system.atomicCpu0.exec_context.thread_0.statExecutedInstType::IprAccess            0                       # Class of executed instruction. (Count)
system.atomicCpu0.exec_context.thread_0.statExecutedInstType::InstPrefetch            0                       # Class of executed instruction. (Count)
system.atomicCpu0.exec_context.thread_0.statExecutedInstType::total            0                       # Class of executed instruction. (Count)
system.atomicCpu0.mmu.dtb.rdAccesses                0                       # TLB accesses on read requests (Count)
system.atomicCpu0.mmu.dtb.wrAccesses                0                       # TLB accesses on write requests (Count)
system.atomicCpu0.mmu.dtb.rdMisses                  0                       # TLB misses on read requests (Count)
system.atomicCpu0.mmu.dtb.wrMisses                  0                       # TLB misses on write requests (Count)
system.atomicCpu0.mmu.dtb.walker.power_state.pwrStateResidencyTicks::UNDEFINED 21896476184750                       # Cumulative time (in ticks) in various power states (Tick)
system.atomicCpu0.mmu.itb.rdAccesses                0                       # TLB accesses on read requests (Count)
system.atomicCpu0.mmu.itb.wrAccesses                0                       # TLB accesses on write requests (Count)
system.atomicCpu0.mmu.itb.rdMisses                  0                       # TLB misses on read requests (Count)
system.atomicCpu0.mmu.itb.wrMisses                  0                       # TLB misses on write requests (Count)
system.atomicCpu0.mmu.itb.walker.power_state.pwrStateResidencyTicks::UNDEFINED 21896476184750                       # Cumulative time (in ticks) in various power states (Tick)
system.atomicCpu0.power_state.pwrStateResidencyTicks::OFF 21896476184750                       # Cumulative time (in ticks) in various power states (Tick)
system.atomicCpu0.thread_0.numInsts                 0                       # Number of Instructions committed (Count)
system.atomicCpu0.thread_0.numOps                   0                       # Number of Ops committed (Count)
system.atomicCpu0.thread_0.numMemRefs               0                       # Number of Memory References (Count)
system.atomicCpu1.numCycles                         0                       # Number of cpu cycles simulated (Cycle)
system.atomicCpu1.numWorkItemsStarted               0                       # Number of work items this cpu started (Count)
system.atomicCpu1.numWorkItemsCompleted             0                       # Number of work items this cpu completed (Count)
system.atomicCpu1.exec_context.thread_0.numInsts            0                       # Number of instructions committed (Count)
system.atomicCpu1.exec_context.thread_0.numOps            0                       # Number of ops (including micro ops) committed (Count)
system.atomicCpu1.exec_context.thread_0.numIntAluAccesses            0                       # Number of integer alu accesses (Count)
system.atomicCpu1.exec_context.thread_0.numFpAluAccesses            0                       # Number of float alu accesses (Count)
system.atomicCpu1.exec_context.thread_0.numVecAluAccesses            0                       # Number of vector alu accesses (Count)
system.atomicCpu1.exec_context.thread_0.numCallsReturns            0                       # Number of times a function call or return occured (Count)
system.atomicCpu1.exec_context.thread_0.numCondCtrlInsts            0                       # Number of instructions that are conditional controls (Count)
system.atomicCpu1.exec_context.thread_0.numIntInsts            0                       # Number of integer instructions (Count)
system.atomicCpu1.exec_context.thread_0.numFpInsts            0                       # Number of float instructions (Count)
system.atomicCpu1.exec_context.thread_0.numVecInsts            0                       # Number of vector instructions (Count)
system.atomicCpu1.exec_context.thread_0.numIntRegReads            0                       # Number of times the integer registers were read (Count)
system.atomicCpu1.exec_context.thread_0.numIntRegWrites            0                       # Number of times the integer registers were written (Count)
system.atomicCpu1.exec_context.thread_0.numFpRegReads            0                       # Number of times the floating registers were read (Count)
system.atomicCpu1.exec_context.thread_0.numFpRegWrites            0                       # Number of times the floating registers were written (Count)
system.atomicCpu1.exec_context.thread_0.numVecRegReads            0                       # Number of times the vector registers were read (Count)
system.atomicCpu1.exec_context.thread_0.numVecRegWrites            0                       # Number of times the vector registers were written (Count)
system.atomicCpu1.exec_context.thread_0.numVecPredRegReads            0                       # Number of times the predicate registers were read (Count)
system.atomicCpu1.exec_context.thread_0.numVecPredRegWrites            0                       # Number of times the predicate registers were written (Count)
system.atomicCpu1.exec_context.thread_0.numMiscRegReads            0                       # Number of times the Misc registers were read (Count)
system.atomicCpu1.exec_context.thread_0.numMiscRegWrites            0                       # Number of times the Misc registers were written (Count)
system.atomicCpu1.exec_context.thread_0.numMemRefs            0                       # Number of memory refs (Count)
system.atomicCpu1.exec_context.thread_0.numLoadInsts            0                       # Number of load instructions (Count)
system.atomicCpu1.exec_context.thread_0.numStoreInsts            0                       # Number of store instructions (Count)
system.atomicCpu1.exec_context.thread_0.numIdleCycles            0                       # Number of idle cycles (Cycle)
system.atomicCpu1.exec_context.thread_0.numBusyCycles            0                       # Number of busy cycles (Cycle)
system.atomicCpu1.exec_context.thread_0.notIdleFraction            0                       # Percentage of non-idle cycles (Ratio)
system.atomicCpu1.exec_context.thread_0.idleFraction            1                       # Percentage of idle cycles (Ratio)
system.atomicCpu1.exec_context.thread_0.statExecutedInstType::No_OpClass            0                       # Class of executed instruction. (Count)
system.atomicCpu1.exec_context.thread_0.statExecutedInstType::IntAlu            0                       # Class of executed instruction. (Count)
system.atomicCpu1.exec_context.thread_0.statExecutedInstType::IntMult            0                       # Class of executed instruction. (Count)
system.atomicCpu1.exec_context.thread_0.statExecutedInstType::IntDiv            0                       # Class of executed instruction. (Count)
system.atomicCpu1.exec_context.thread_0.statExecutedInstType::FloatAdd            0                       # Class of executed instruction. (Count)
system.atomicCpu1.exec_context.thread_0.statExecutedInstType::FloatCmp            0                       # Class of executed instruction. (Count)
system.atomicCpu1.exec_context.thread_0.statExecutedInstType::FloatCvt            0                       # Class of executed instruction. (Count)
system.atomicCpu1.exec_context.thread_0.statExecutedInstType::FloatMult            0                       # Class of executed instruction. (Count)
system.atomicCpu1.exec_context.thread_0.statExecutedInstType::FloatMultAcc            0                       # Class of executed instruction. (Count)
system.atomicCpu1.exec_context.thread_0.statExecutedInstType::FloatDiv            0                       # Class of executed instruction. (Count)
system.atomicCpu1.exec_context.thread_0.statExecutedInstType::FloatMisc            0                       # Class of executed instruction. (Count)
system.atomicCpu1.exec_context.thread_0.statExecutedInstType::FloatSqrt            0                       # Class of executed instruction. (Count)
system.atomicCpu1.exec_context.thread_0.statExecutedInstType::SimdAdd            0                       # Class of executed instruction. (Count)
system.atomicCpu1.exec_context.thread_0.statExecutedInstType::SimdAddAcc            0                       # Class of executed instruction. (Count)
system.atomicCpu1.exec_context.thread_0.statExecutedInstType::SimdAlu            0                       # Class of executed instruction. (Count)
system.atomicCpu1.exec_context.thread_0.statExecutedInstType::SimdCmp            0                       # Class of executed instruction. (Count)
system.atomicCpu1.exec_context.thread_0.statExecutedInstType::SimdCvt            0                       # Class of executed instruction. (Count)
system.atomicCpu1.exec_context.thread_0.statExecutedInstType::SimdMisc            0                       # Class of executed instruction. (Count)
system.atomicCpu1.exec_context.thread_0.statExecutedInstType::SimdMult            0                       # Class of executed instruction. (Count)
system.atomicCpu1.exec_context.thread_0.statExecutedInstType::SimdMultAcc            0                       # Class of executed instruction. (Count)
system.atomicCpu1.exec_context.thread_0.statExecutedInstType::SimdShift            0                       # Class of executed instruction. (Count)
system.atomicCpu1.exec_context.thread_0.statExecutedInstType::SimdShiftAcc            0                       # Class of executed instruction. (Count)
system.atomicCpu1.exec_context.thread_0.statExecutedInstType::SimdDiv            0                       # Class of executed instruction. (Count)
system.atomicCpu1.exec_context.thread_0.statExecutedInstType::SimdSqrt            0                       # Class of executed instruction. (Count)
system.atomicCpu1.exec_context.thread_0.statExecutedInstType::SimdFloatAdd            0                       # Class of executed instruction. (Count)
system.atomicCpu1.exec_context.thread_0.statExecutedInstType::SimdFloatAlu            0                       # Class of executed instruction. (Count)
system.atomicCpu1.exec_context.thread_0.statExecutedInstType::SimdFloatCmp            0                       # Class of executed instruction. (Count)
system.atomicCpu1.exec_context.thread_0.statExecutedInstType::SimdFloatCvt            0                       # Class of executed instruction. (Count)
system.atomicCpu1.exec_context.thread_0.statExecutedInstType::SimdFloatDiv            0                       # Class of executed instruction. (Count)
system.atomicCpu1.exec_context.thread_0.statExecutedInstType::SimdFloatMisc            0                       # Class of executed instruction. (Count)
system.atomicCpu1.exec_context.thread_0.statExecutedInstType::SimdFloatMult            0                       # Class of executed instruction. (Count)
system.atomicCpu1.exec_context.thread_0.statExecutedInstType::SimdFloatMultAcc            0                       # Class of executed instruction. (Count)
system.atomicCpu1.exec_context.thread_0.statExecutedInstType::SimdFloatSqrt            0                       # Class of executed instruction. (Count)
system.atomicCpu1.exec_context.thread_0.statExecutedInstType::SimdReduceAdd            0                       # Class of executed instruction. (Count)
system.atomicCpu1.exec_context.thread_0.statExecutedInstType::SimdReduceAlu            0                       # Class of executed instruction. (Count)
system.atomicCpu1.exec_context.thread_0.statExecutedInstType::SimdReduceCmp            0                       # Class of executed instruction. (Count)
system.atomicCpu1.exec_context.thread_0.statExecutedInstType::SimdFloatReduceAdd            0                       # Class of executed instruction. (Count)
system.atomicCpu1.exec_context.thread_0.statExecutedInstType::SimdFloatReduceCmp            0                       # Class of executed instruction. (Count)
system.atomicCpu1.exec_context.thread_0.statExecutedInstType::SimdAes            0                       # Class of executed instruction. (Count)
system.atomicCpu1.exec_context.thread_0.statExecutedInstType::SimdAesMix            0                       # Class of executed instruction. (Count)
system.atomicCpu1.exec_context.thread_0.statExecutedInstType::SimdSha1Hash            0                       # Class of executed instruction. (Count)
system.atomicCpu1.exec_context.thread_0.statExecutedInstType::SimdSha1Hash2            0                       # Class of executed instruction. (Count)
system.atomicCpu1.exec_context.thread_0.statExecutedInstType::SimdSha256Hash            0                       # Class of executed instruction. (Count)
system.atomicCpu1.exec_context.thread_0.statExecutedInstType::SimdSha256Hash2            0                       # Class of executed instruction. (Count)
system.atomicCpu1.exec_context.thread_0.statExecutedInstType::SimdShaSigma2            0                       # Class of executed instruction. (Count)
system.atomicCpu1.exec_context.thread_0.statExecutedInstType::SimdShaSigma3            0                       # Class of executed instruction. (Count)
system.atomicCpu1.exec_context.thread_0.statExecutedInstType::SimdPredAlu            0                       # Class of executed instruction. (Count)
system.atomicCpu1.exec_context.thread_0.statExecutedInstType::MemRead            0                       # Class of executed instruction. (Count)
system.atomicCpu1.exec_context.thread_0.statExecutedInstType::MemWrite            0                       # Class of executed instruction. (Count)
system.atomicCpu1.exec_context.thread_0.statExecutedInstType::FloatMemRead            0                       # Class of executed instruction. (Count)
system.atomicCpu1.exec_context.thread_0.statExecutedInstType::FloatMemWrite            0                       # Class of executed instruction. (Count)
system.atomicCpu1.exec_context.thread_0.statExecutedInstType::IprAccess            0                       # Class of executed instruction. (Count)
system.atomicCpu1.exec_context.thread_0.statExecutedInstType::InstPrefetch            0                       # Class of executed instruction. (Count)
system.atomicCpu1.exec_context.thread_0.statExecutedInstType::total            0                       # Class of executed instruction. (Count)
system.atomicCpu1.mmu.dtb.rdAccesses                0                       # TLB accesses on read requests (Count)
system.atomicCpu1.mmu.dtb.wrAccesses                0                       # TLB accesses on write requests (Count)
system.atomicCpu1.mmu.dtb.rdMisses                  0                       # TLB misses on read requests (Count)
system.atomicCpu1.mmu.dtb.wrMisses                  0                       # TLB misses on write requests (Count)
system.atomicCpu1.mmu.dtb.walker.power_state.pwrStateResidencyTicks::UNDEFINED 21896476184750                       # Cumulative time (in ticks) in various power states (Tick)
system.atomicCpu1.mmu.itb.rdAccesses                0                       # TLB accesses on read requests (Count)
system.atomicCpu1.mmu.itb.wrAccesses                0                       # TLB accesses on write requests (Count)
system.atomicCpu1.mmu.itb.rdMisses                  0                       # TLB misses on read requests (Count)
system.atomicCpu1.mmu.itb.wrMisses                  0                       # TLB misses on write requests (Count)
system.atomicCpu1.mmu.itb.walker.power_state.pwrStateResidencyTicks::UNDEFINED 21896476184750                       # Cumulative time (in ticks) in various power states (Tick)
system.atomicCpu1.power_state.pwrStateResidencyTicks::OFF 21896476184750                       # Cumulative time (in ticks) in various power states (Tick)
system.atomicCpu1.thread_0.numInsts                 0                       # Number of Instructions committed (Count)
system.atomicCpu1.thread_0.numOps                   0                       # Number of Ops committed (Count)
system.atomicCpu1.thread_0.numMemRefs               0                       # Number of Memory References (Count)
system.caches.delayHistogram::bucket_size            4                       # delay histogram for all message (Unspecified)
system.caches.delayHistogram::max_bucket           39                       # delay histogram for all message (Unspecified)
system.caches.delayHistogram::samples       155343646                       # delay histogram for all message (Unspecified)
system.caches.delayHistogram::mean           0.820023                       # delay histogram for all message (Unspecified)
system.caches.delayHistogram::stdev          2.436422                       # delay histogram for all message (Unspecified)
system.caches.delayHistogram             |   139492268     89.80%     89.80% |       12642      0.01%     89.80% |    15810358     10.18%     99.98% |        1776      0.00%     99.98% |       26601      0.02%    100.00% |           0      0.00%    100.00% |           0      0.00%    100.00% |           0      0.00%    100.00% |           1      0.00%    100.00% |           0      0.00%    100.00% # delay histogram for all message (Unspecified)
system.caches.delayHistogram::total         155343646                       # delay histogram for all message (Unspecified)
system.caches.m_outstandReqHistSeqr::bucket_size            1                       (Unspecified)
system.caches.m_outstandReqHistSeqr::max_bucket            9                       (Unspecified)
system.caches.m_outstandReqHistSeqr::samples  19765579320                       (Unspecified)
system.caches.m_outstandReqHistSeqr::mean            1                       (Unspecified)
system.caches.m_outstandReqHistSeqr::gmean            1                       (Unspecified)
system.caches.m_outstandReqHistSeqr      |           0      0.00%      0.00% | 19765579320    100.00%    100.00% |           0      0.00%    100.00% |           0      0.00%    100.00% |           0      0.00%    100.00% |           0      0.00%    100.00% |           0      0.00%    100.00% |           0      0.00%    100.00% |           0      0.00%    100.00% |           0      0.00%    100.00% (Unspecified)
system.caches.m_outstandReqHistSeqr::total  19765579320                       (Unspecified)
system.caches.m_latencyHistSeqr::bucket_size          256                       (Unspecified)
system.caches.m_latencyHistSeqr::max_bucket         2559                       (Unspecified)
system.caches.m_latencyHistSeqr::samples  19765579320                       (Unspecified)
system.caches.m_latencyHistSeqr::mean        1.023460                       (Unspecified)
system.caches.m_latencyHistSeqr::gmean       1.004324                       (Unspecified)
system.caches.m_latencyHistSeqr::stdev       0.996935                       (Unspecified)
system.caches.m_latencyHistSeqr          | 19765535169    100.00%    100.00% |       37180      0.00%    100.00% |        5252      0.00%    100.00% |         381      0.00%    100.00% |         190      0.00%    100.00% |         264      0.00%    100.00% |         355      0.00%    100.00% |         516      0.00%    100.00% |          12      0.00%    100.00% |           1      0.00%    100.00% (Unspecified)
system.caches.m_latencyHistSeqr::total    19765579320                       (Unspecified)
system.caches.m_hitLatencyHistSeqr::bucket_size            1                       (Unspecified)
system.caches.m_hitLatencyHistSeqr::max_bucket            9                       (Unspecified)
system.caches.m_hitLatencyHistSeqr::samples  19734056614                       (Unspecified)
system.caches.m_hitLatencyHistSeqr::mean            1                       (Unspecified)
system.caches.m_hitLatencyHistSeqr::gmean            1                       (Unspecified)
system.caches.m_hitLatencyHistSeqr       |           0      0.00%      0.00% | 19734056614    100.00%    100.00% |           0      0.00%    100.00% |           0      0.00%    100.00% |           0      0.00%    100.00% |           0      0.00%    100.00% |           0      0.00%    100.00% |           0      0.00%    100.00% |           0      0.00%    100.00% |           0      0.00%    100.00% (Unspecified)
system.caches.m_hitLatencyHistSeqr::total  19734056614                       (Unspecified)
system.caches.m_missLatencyHistSeqr::bucket_size          256                       (Unspecified)
system.caches.m_missLatencyHistSeqr::max_bucket         2559                       (Unspecified)
system.caches.m_missLatencyHistSeqr::samples     31522706                       (Unspecified)
system.caches.m_missLatencyHistSeqr::mean    15.710108                       (Unspecified)
system.caches.m_missLatencyHistSeqr::gmean    14.957995                       (Unspecified)
system.caches.m_missLatencyHistSeqr::stdev    20.177865                       (Unspecified)
system.caches.m_missLatencyHistSeqr      |    31478555     99.86%     99.86% |       37180      0.12%     99.98% |        5252      0.02%     99.99% |         381      0.00%    100.00% |         190      0.00%    100.00% |         264      0.00%    100.00% |         355      0.00%    100.00% |         516      0.00%    100.00% |          12      0.00%    100.00% |           1      0.00%    100.00% (Unspecified)
system.caches.m_missLatencyHistSeqr::total     31522706                       (Unspecified)
system.caches.delayVCHist.vnet_0::bucket_size            2                       # delay histogram for vnet_0 (Unspecified)
system.caches.delayVCHist.vnet_0::max_bucket           19                       # delay histogram for vnet_0 (Unspecified)
system.caches.delayVCHist.vnet_0::samples     92969644                       # delay histogram for vnet_0 (Unspecified)
system.caches.delayVCHist.vnet_0::mean       1.370177                       # delay histogram for vnet_0 (Unspecified)
system.caches.delayVCHist.vnet_0::stdev      3.027360                       # delay histogram for vnet_0 (Unspecified)
system.caches.delayVCHist.vnet_0         |    77103091     82.93%     82.93% |       15224      0.02%     82.95% |        7826      0.01%     82.96% |        4785      0.01%     82.96% |    15659547     16.84%     99.81% |      150796      0.16%     99.97% |         573      0.00%     99.97% |        1201      0.00%     99.97% |         760      0.00%     99.97% |       25841      0.03%    100.00% # delay histogram for vnet_0 (Unspecified)
system.caches.delayVCHist.vnet_0::total      92969644                       # delay histogram for vnet_0 (Unspecified)
system.caches.delayVCHist.vnet_1::bucket_size            4                       # delay histogram for vnet_1 (Unspecified)
system.caches.delayVCHist.vnet_1::max_bucket           39                       # delay histogram for vnet_1 (Unspecified)
system.caches.delayVCHist.vnet_1::samples     62315494                       # delay histogram for vnet_1 (Unspecified)
system.caches.delayVCHist.vnet_1::mean       0.000006                       # delay histogram for vnet_1 (Unspecified)
system.caches.delayVCHist.vnet_1::stdev      0.007524                       # delay histogram for vnet_1 (Unspecified)
system.caches.delayVCHist.vnet_1         |    62315445    100.00%    100.00% |          31      0.00%    100.00% |          15      0.00%    100.00% |           2      0.00%    100.00% |           0      0.00%    100.00% |           0      0.00%    100.00% |           0      0.00%    100.00% |           0      0.00%    100.00% |           1      0.00%    100.00% |           0      0.00%    100.00% # delay histogram for vnet_1 (Unspecified)
system.caches.delayVCHist.vnet_1::total      62315494                       # delay histogram for vnet_1 (Unspecified)
system.caches.delayVCHist.vnet_2::bucket_size            1                       # delay histogram for vnet_2 (Unspecified)
system.caches.delayVCHist.vnet_2::max_bucket            9                       # delay histogram for vnet_2 (Unspecified)
system.caches.delayVCHist.vnet_2::samples        58508                       # delay histogram for vnet_2 (Unspecified)
system.caches.delayVCHist.vnet_2::mean       0.000137                       # delay histogram for vnet_2 (Unspecified)
system.caches.delayVCHist.vnet_2::stdev      0.016536                       # delay histogram for vnet_2 (Unspecified)
system.caches.delayVCHist.vnet_2         |       58504     99.99%     99.99% |           0      0.00%     99.99% |           4      0.01%    100.00% |           0      0.00%    100.00% |           0      0.00%    100.00% |           0      0.00%    100.00% |           0      0.00%    100.00% |           0      0.00%    100.00% |           0      0.00%    100.00% |           0      0.00%    100.00% # delay histogram for vnet_2 (Unspecified)
system.caches.delayVCHist.vnet_2::total         58508                       # delay histogram for vnet_2 (Unspecified)
system.caches.L1Cache_Controller.Load    |  1134546144     50.01%     50.01% |  1133970714     49.99%    100.00% (Unspecified)
system.caches.L1Cache_Controller.Load::total   2268516858                       (Unspecified)
system.caches.L1Cache_Controller.Ifetch  |18446744073385584640     50.00%     50.00% |18446744073386833920     50.00%    100.00% (Unspecified)
system.caches.L1Cache_Controller.Ifetch::total 36893488146772418560                       (Unspecified)
system.caches.L1Cache_Controller.Store   |   482342882     50.04%     50.04% |   481534038     49.96%    100.00% (Unspecified)
system.caches.L1Cache_Controller.Store::total    963876920                       (Unspecified)
system.caches.L1Cache_Controller.Inv     |        2569      8.62%      8.62% |       27239     91.38%    100.00% (Unspecified)
system.caches.L1Cache_Controller.Inv::total        29808                       (Unspecified)
system.caches.L1Cache_Controller.L1_Replacement |    15790647     50.20%     50.20% |    15663145     49.80%    100.00% (Unspecified)
system.caches.L1Cache_Controller.L1_Replacement::total     31453792                       (Unspecified)
system.caches.L1Cache_Controller.Fwd_GETX |          75     12.58%     12.58% |         521     87.42%    100.00% (Unspecified)
system.caches.L1Cache_Controller.Fwd_GETX::total          596                       (Unspecified)
system.caches.L1Cache_Controller.Fwd_GETS |       27483     97.79%     97.79% |         621      2.21%    100.00% (Unspecified)
system.caches.L1Cache_Controller.Fwd_GETS::total        28104                       (Unspecified)
system.caches.L1Cache_Controller.Data    |        1443     99.38%     99.38% |           9      0.62%    100.00% (Unspecified)
system.caches.L1Cache_Controller.Data::total         1452                       (Unspecified)
system.caches.L1Cache_Controller.Data_Exclusive |     7525866     50.02%     50.02% |     7519405     49.98%    100.00% (Unspecified)
system.caches.L1Cache_Controller.Data_Exclusive::total     15045271                       (Unspecified)
system.caches.L1Cache_Controller.DataS_fromL1 |         621      2.21%      2.21% |       27483     97.79%    100.00% (Unspecified)
system.caches.L1Cache_Controller.DataS_fromL1::total        28104                       (Unspecified)
system.caches.L1Cache_Controller.Data_all_Acks |     8271511     50.37%     50.37% |     8150210     49.63%    100.00% (Unspecified)
system.caches.L1Cache_Controller.Data_all_Acks::total     16421721                       (Unspecified)
system.caches.L1Cache_Controller.Ack     |       25796     98.62%     98.62% |         362      1.38%    100.00% (Unspecified)
system.caches.L1Cache_Controller.Ack::total        26158                       (Unspecified)
system.caches.L1Cache_Controller.Ack_all |       27239     98.66%     98.66% |         371      1.34%    100.00% (Unspecified)
system.caches.L1Cache_Controller.Ack_all::total        27610                       (Unspecified)
system.caches.L1Cache_Controller.WB_Ack  |    15348417     50.02%     50.02% |    15337659     49.98%    100.00% (Unspecified)
system.caches.L1Cache_Controller.WB_Ack::total     30686076                       (Unspecified)
system.caches.L1Cache_Controller.NP.Load |     7683216     50.02%     50.02% |     7676946     49.98%    100.00% (Unspecified)
system.caches.L1Cache_Controller.NP.Load::total     15360162                       (Unspecified)
system.caches.L1Cache_Controller.NP.Ifetch |      281765     62.65%     62.65% |      167990     37.35%    100.00% (Unspecified)
system.caches.L1Cache_Controller.NP.Ifetch::total       449755                       (Unspecified)
system.caches.L1Cache_Controller.NP.Store |     7834367     50.02%     50.02% |     7826913     49.98%    100.00% (Unspecified)
system.caches.L1Cache_Controller.NP.Store::total     15661280                       (Unspecified)
system.caches.L1Cache_Controller.NP.Inv  |          74      5.45%      5.45% |        1284     94.55%    100.00% (Unspecified)
system.caches.L1Cache_Controller.NP.Inv::total         1358                       (Unspecified)
system.caches.L1Cache_Controller.I.Load  |          60      0.24%      0.24% |       25242     99.76%    100.00% (Unspecified)
system.caches.L1Cache_Controller.I.Load::total        25302                       (Unspecified)
system.caches.L1Cache_Controller.I.Store |          33     67.35%     67.35% |          16     32.65%    100.00% (Unspecified)
system.caches.L1Cache_Controller.I.Store::total           49                       (Unspecified)
system.caches.L1Cache_Controller.I.L1_Replacement |        2475     67.05%     67.05% |        1216     32.95%    100.00% (Unspecified)
system.caches.L1Cache_Controller.I.L1_Replacement::total         3691                       (Unspecified)
system.caches.L1Cache_Controller.S.Load  |   528383931     50.00%     50.00% |   528437343     50.00%    100.00% (Unspecified)
system.caches.L1Cache_Controller.S.Load::total   1056821274                       (Unspecified)
system.caches.L1Cache_Controller.S.Ifetch |18446744073385304064     50.00%     50.00% |18446744073386665984     50.00%    100.00% (Unspecified)
system.caches.L1Cache_Controller.S.Ifetch::total 36893488146771968000                       (Unspecified)
system.caches.L1Cache_Controller.S.Store |       25796     98.62%     98.62% |         362      1.38%    100.00% (Unspecified)
system.caches.L1Cache_Controller.S.Store::total        26158                       (Unspecified)
system.caches.L1Cache_Controller.S.Inv   |         297      1.13%      1.13% |       25955     98.87%    100.00% (Unspecified)
system.caches.L1Cache_Controller.S.Inv::total        26252                       (Unspecified)
system.caches.L1Cache_Controller.S.L1_Replacement |      439755     57.56%     57.56% |      324270     42.44%    100.00% (Unspecified)
system.caches.L1Cache_Controller.S.L1_Replacement::total       764025                       (Unspecified)
system.caches.L1Cache_Controller.E.Load  |   102354252     49.98%     49.98% |   102430393     50.02%    100.00% (Unspecified)
system.caches.L1Cache_Controller.E.Load::total    204784645                       (Unspecified)
system.caches.L1Cache_Controller.E.Store |       17484     54.44%     54.44% |       14633     45.56%    100.00% (Unspecified)
system.caches.L1Cache_Controller.E.Store::total        32117                       (Unspecified)
system.caches.L1Cache_Controller.E.Inv   |        2064    100.00%    100.00% |           0      0.00%    100.00% (Unspecified)
system.caches.L1Cache_Controller.E.Inv::total         2064                       (Unspecified)
system.caches.L1Cache_Controller.E.L1_Replacement |     7500435     50.01%     50.01% |     7496873     49.99%    100.00% (Unspecified)
system.caches.L1Cache_Controller.E.L1_Replacement::total     14997308                       (Unspecified)
system.caches.L1Cache_Controller.E.Fwd_GETX |           8      1.64%      1.64% |         481     98.36%    100.00% (Unspecified)
system.caches.L1Cache_Controller.E.Fwd_GETX::total          489                       (Unspecified)
system.caches.L1Cache_Controller.E.Fwd_GETS |         634     64.24%     64.24% |         353     35.76%    100.00% (Unspecified)
system.caches.L1Cache_Controller.E.Fwd_GETS::total          987                       (Unspecified)
system.caches.L1Cache_Controller.M.Load  |   496124685     50.04%     50.04% |   495400790     49.96%    100.00% (Unspecified)
system.caches.L1Cache_Controller.M.Load::total    991525475                       (Unspecified)
system.caches.L1Cache_Controller.M.Store |   474465202     50.04%     50.04% |   473692114     49.96%    100.00% (Unspecified)
system.caches.L1Cache_Controller.M.Store::total    948157316                       (Unspecified)
system.caches.L1Cache_Controller.M.Inv   |         134    100.00%    100.00% |           0      0.00%    100.00% (Unspecified)
system.caches.L1Cache_Controller.M.Inv::total          134                       (Unspecified)
system.caches.L1Cache_Controller.M.L1_Replacement |     7847982     50.02%     50.02% |     7840786     49.98%    100.00% (Unspecified)
system.caches.L1Cache_Controller.M.L1_Replacement::total     15688768                       (Unspecified)
system.caches.L1Cache_Controller.M.Fwd_GETX |          67     62.62%     62.62% |          40     37.38%    100.00% (Unspecified)
system.caches.L1Cache_Controller.M.Fwd_GETX::total          107                       (Unspecified)
system.caches.L1Cache_Controller.M.Fwd_GETS |       26849     99.01%     99.01% |         268      0.99%    100.00% (Unspecified)
system.caches.L1Cache_Controller.M.Fwd_GETS::total        27117                       (Unspecified)
system.caches.L1Cache_Controller.IS.Data_Exclusive |     7525866     50.02%     50.02% |     7519405     49.98%    100.00% (Unspecified)
system.caches.L1Cache_Controller.IS.Data_Exclusive::total     15045271                       (Unspecified)
system.caches.L1Cache_Controller.IS.DataS_fromL1 |         621      2.21%      2.21% |       27483     97.79%    100.00% (Unspecified)
system.caches.L1Cache_Controller.IS.DataS_fromL1::total        28104                       (Unspecified)
system.caches.L1Cache_Controller.IS.Data_all_Acks |      438554     57.56%     57.56% |      323290     42.44%    100.00% (Unspecified)
system.caches.L1Cache_Controller.IS.Data_all_Acks::total       761844                       (Unspecified)
system.caches.L1Cache_Controller.IM.Data |        1443     99.38%     99.38% |           9      0.62%    100.00% (Unspecified)
system.caches.L1Cache_Controller.IM.Data::total         1452                       (Unspecified)
system.caches.L1Cache_Controller.IM.Data_all_Acks |     7832957     50.02%     50.02% |     7826920     49.98%    100.00% (Unspecified)
system.caches.L1Cache_Controller.IM.Data_all_Acks::total     15659877                       (Unspecified)
system.caches.L1Cache_Controller.SM.Ack  |       25796     98.62%     98.62% |         362      1.38%    100.00% (Unspecified)
system.caches.L1Cache_Controller.SM.Ack::total        26158                       (Unspecified)
system.caches.L1Cache_Controller.SM.Ack_all |       27239     98.66%     98.66% |         371      1.34%    100.00% (Unspecified)
system.caches.L1Cache_Controller.SM.Ack_all::total        27610                       (Unspecified)
system.caches.L1Cache_Controller.M_I.WB_Ack |    15348417     50.02%     50.02% |    15337659     49.98%    100.00% (Unspecified)
system.caches.L1Cache_Controller.M_I.WB_Ack::total     30686076                       (Unspecified)
system.caches.Directory_Controller.Fetch        44052      0.00%      0.00% (Unspecified)
system.caches.Directory_Controller.Data          2374      0.00%      0.00% (Unspecified)
system.caches.Directory_Controller.Memory_Data        44081      0.00%      0.00% (Unspecified)
system.caches.Directory_Controller.Memory_Ack         2374      0.00%      0.00% (Unspecified)
system.caches.Directory_Controller.DMA_READ         2403      0.00%      0.00% (Unspecified)
system.caches.Directory_Controller.I.Fetch        44052      0.00%      0.00% (Unspecified)
system.caches.Directory_Controller.I.DMA_READ           29      0.00%      0.00% (Unspecified)
system.caches.Directory_Controller.ID.Memory_Data           29      0.00%      0.00% (Unspecified)
system.caches.Directory_Controller.M.DMA_READ         2374      0.00%      0.00% (Unspecified)
system.caches.Directory_Controller.IM.Memory_Data        44052      0.00%      0.00% (Unspecified)
system.caches.Directory_Controller.M_DRD.Data         2374      0.00%      0.00% (Unspecified)
system.caches.Directory_Controller.M_DRDI.Memory_Ack         2374      0.00%      0.00% (Unspecified)
system.caches.DMA_Controller.ReadRequest |        2403    100.00%    100.00% |           0      0.00%    100.00% (Unspecified)
system.caches.DMA_Controller.ReadRequest::total         2403                       (Unspecified)
system.caches.DMA_Controller.Data        |        2403    100.00%    100.00% |           0      0.00%    100.00% (Unspecified)
system.caches.DMA_Controller.Data::total         2403                       (Unspecified)
system.caches.DMA_Controller.READY.ReadRequest |        2403    100.00%    100.00% |           0      0.00%    100.00% (Unspecified)
system.caches.DMA_Controller.READY.ReadRequest::total         2403                       (Unspecified)
system.caches.DMA_Controller.BUSY_RD.Data |        2403    100.00%    100.00% |           0      0.00%    100.00% (Unspecified)
system.caches.DMA_Controller.BUSY_RD.Data::total         2403                       (Unspecified)
system.caches.L2Cache_Controller.L1_GET_INSTR |       59552     13.24%     13.24% |       63728     14.17%     27.41% |       75280     16.74%     44.15% |       14602      3.25%     47.40% |       32241      7.17%     54.56% |       54646     12.15%     66.71% |       62255     13.84%     80.56% |       87451     19.44%    100.00% (Unspecified)
system.caches.L2Cache_Controller.L1_GET_INSTR::total       449755                       (Unspecified)
system.caches.L2Cache_Controller.L1_GETS |     1939433     12.60%     12.60% |     1919919     12.47%     25.07% |     1918848     12.47%     37.54% |     1921498     12.48%     50.02% |     1921045     12.48%     62.51% |     1913295     12.43%     74.94% |     1937786     12.59%     87.53% |     1919964     12.47%    100.00% (Unspecified)
system.caches.L2Cache_Controller.L1_GETS::total     15391788                       (Unspecified)
system.caches.L2Cache_Controller.L1_GETX |     1959854     12.51%     12.51% |     1957878     12.50%     25.02% |     1954142     12.48%     37.49% |     1957482     12.50%     49.99% |     1956940     12.50%     62.49% |     1959266     12.51%     75.00% |     1960113     12.52%     87.51% |     1955654     12.49%    100.00% (Unspecified)
system.caches.L2Cache_Controller.L1_GETX::total     15661329                       (Unspecified)
system.caches.L2Cache_Controller.L1_UPGRADE |        8523     28.09%     28.09% |        4731     15.59%     43.68% |          77      0.25%     43.93% |          35      0.12%     44.05% |         140      0.46%     44.51% |          24      0.08%     44.59% |       16710     55.06%     99.65% |         106      0.35%    100.00% (Unspecified)
system.caches.L2Cache_Controller.L1_UPGRADE::total        30346                       (Unspecified)
system.caches.L2Cache_Controller.L1_PUTX |     3833991     12.49%     12.49% |     3833979     12.49%     24.99% |     3830538     12.48%     37.47% |     3836526     12.50%     49.97% |     3837827     12.51%     62.48% |     3837357     12.51%     74.99% |     3842673     12.52%     87.51% |     3833185     12.49%    100.00% (Unspecified)
system.caches.L2Cache_Controller.L1_PUTX::total     30686076                       (Unspecified)
system.caches.L2Cache_Controller.Mem_Data |        5663     12.86%     12.86% |        5484     12.45%     25.30% |        5512     12.51%     37.82% |        5522     12.54%     50.35% |        5495     12.47%     62.83% |        5478     12.44%     75.26% |        5457     12.39%     87.65% |        5441     12.35%    100.00% (Unspecified)
system.caches.L2Cache_Controller.Mem_Data::total        44052                       (Unspecified)
system.caches.L2Cache_Controller.Mem_Ack |         299     12.59%     12.59% |         297     12.51%     25.11% |         297     12.51%     37.62% |         297     12.51%     50.13% |         296     12.47%     62.59% |         296     12.47%     75.06% |         296     12.47%     87.53% |         296     12.47%    100.00% (Unspecified)
system.caches.L2Cache_Controller.Mem_Ack::total         2374                       (Unspecified)
system.caches.L2Cache_Controller.WB_Data |        9372     34.39%     34.39% |        4250     15.60%     49.99% |          99      0.36%     50.35% |          57      0.21%     50.56% |         148      0.54%     51.10% |          45      0.17%     51.27% |       13151     48.26%     99.53% |         129      0.47%    100.00% (Unspecified)
system.caches.L2Cache_Controller.WB_Data::total        27251                       (Unspecified)
system.caches.L2Cache_Controller.WB_Data_clean |          68      6.89%      6.89% |         560     56.74%     63.63% |          63      6.38%     70.01% |          56      5.67%     75.68% |          84      8.51%     84.19% |          48      4.86%     89.06% |          50      5.07%     94.12% |          58      5.88%    100.00% (Unspecified)
system.caches.L2Cache_Controller.WB_Data_clean::total          987                       (Unspecified)
system.caches.L2Cache_Controller.Ack_all |         254     12.31%     12.31% |         258     12.50%     24.81% |         260     12.60%     37.40% |         260     12.60%     50.00% |         253     12.26%     62.26% |         261     12.65%     74.90% |         260     12.60%     87.50% |         258     12.50%    100.00% (Unspecified)
system.caches.L2Cache_Controller.Ack_all::total         2064                       (Unspecified)
system.caches.L2Cache_Controller.Unblock |        9421     33.52%     33.52% |        4793     17.05%     50.58% |         145      0.52%     51.09% |          96      0.34%     51.43% |         216      0.77%     52.20% |          77      0.27%     52.48% |       13185     46.92%     99.39% |         171      0.61%    100.00% (Unspecified)
system.caches.L2Cache_Controller.Unblock::total        28104                       (Unspecified)
system.caches.L2Cache_Controller.Exclusive_Unblock |     3846143     12.51%     12.51% |     3841050     12.50%     25.01% |     3832936     12.47%     37.48% |     3838890     12.49%     49.98% |     3840293     12.50%     62.47% |     3839704     12.49%     74.97% |     3858125     12.55%     87.52% |     3835617     12.48%    100.00% (Unspecified)
system.caches.L2Cache_Controller.Exclusive_Unblock::total     30732758                       (Unspecified)
system.caches.L2Cache_Controller.MEM_Inv |         598     12.59%     12.59% |         594     12.51%     25.11% |         594     12.51%     37.62% |         594     12.51%     50.13% |         592     12.47%     62.59% |         592     12.47%     75.06% |         592     12.47%     87.53% |         592     12.47%    100.00% (Unspecified)
system.caches.L2Cache_Controller.MEM_Inv::total         4748                       (Unspecified)
system.caches.L2Cache_Controller.NP.L1_GET_INSTR |         387     12.24%     12.24% |         392     12.40%     24.64% |         405     12.81%     37.46% |         413     13.07%     50.52% |         404     12.78%     63.30% |         404     12.78%     76.08% |         382     12.08%     88.17% |         374     11.83%    100.00% (Unspecified)
system.caches.L2Cache_Controller.NP.L1_GET_INSTR::total         3161                       (Unspecified)
system.caches.L2Cache_Controller.NP.L1_GETS |        3990     12.84%     12.84% |        3877     12.48%     25.32% |        3874     12.47%     37.78% |        3909     12.58%     50.36% |        3869     12.45%     62.81% |        3877     12.48%     75.29% |        3844     12.37%     87.66% |        3834     12.34%    100.00% (Unspecified)
system.caches.L2Cache_Controller.NP.L1_GETS::total        31074                       (Unspecified)
system.caches.L2Cache_Controller.NP.L1_GETX |        1286     13.10%     13.10% |        1215     12.38%     25.48% |        1233     12.56%     38.04% |        1200     12.22%     50.26% |        1222     12.45%     62.71% |        1197     12.19%     74.90% |        1231     12.54%     87.44% |        1233     12.56%    100.00% (Unspecified)
system.caches.L2Cache_Controller.NP.L1_GETX::total         9817                       (Unspecified)
system.caches.L2Cache_Controller.SS.L1_GET_INSTR |       59154     13.25%     13.25% |       63324     14.18%     27.43% |       74865     16.77%     44.20% |       14179      3.18%     47.37% |       31824      7.13%     54.50% |       54228     12.15%     66.65% |       61859     13.85%     80.50% |       87062     19.50%    100.00% (Unspecified)
system.caches.L2Cache_Controller.SS.L1_GET_INSTR::total       446495                       (Unspecified)
system.caches.L2Cache_Controller.SS.L1_GETS |       52241     16.74%     16.74% |       36681     11.75%     28.49% |       39982     12.81%     41.30% |       40029     12.83%     54.13% |       37615     12.05%     66.18% |       32804     10.51%     76.70% |       32791     10.51%     87.20% |       39936     12.80%    100.00% (Unspecified)
system.caches.L2Cache_Controller.SS.L1_GETS::total       312079                       (Unspecified)
system.caches.L2Cache_Controller.SS.L1_GETX |         827     56.96%     56.96% |           0      0.00%     56.96% |           0      0.00%     56.96% |           0      0.00%     56.96% |          11      0.76%     57.71% |           2      0.14%     57.85% |         609     41.94%     99.79% |           3      0.21%    100.00% (Unspecified)
system.caches.L2Cache_Controller.SS.L1_GETX::total         1452                       (Unspecified)
system.caches.L2Cache_Controller.SS.L1_UPGRADE |        8523     32.58%     32.58% |        4731     18.09%     50.67% |          77      0.29%     50.96% |          35      0.13%     51.10% |         140      0.54%     51.63% |          24      0.09%     51.72% |       12522     47.87%     99.59% |         106      0.41%    100.00% (Unspecified)
system.caches.L2Cache_Controller.SS.L1_UPGRADE::total        26158                       (Unspecified)
system.caches.L2Cache_Controller.M.L1_GETS |     1873778     12.48%     12.48% |     1874565     12.49%     24.97% |     1874845     12.49%     37.45% |     1877464     12.50%     49.96% |     1879344     12.52%     62.47% |     1876537     12.50%     74.97% |     1881646     12.53%     87.51% |     1876023     12.49%    100.00% (Unspecified)
system.caches.L2Cache_Controller.M.L1_GETS::total     15014202                       (Unspecified)
system.caches.L2Cache_Controller.M.L1_GETX |     1957240     12.51%     12.51% |     1956637     12.50%     25.01% |     1952902     12.48%     37.49% |     1956264     12.50%     49.99% |     1955702     12.50%     62.49% |     1958054     12.51%     75.00% |     1958264     12.51%     87.51% |     1954401     12.49%    100.00% (Unspecified)
system.caches.L2Cache_Controller.M.L1_GETX::total     15649464                       (Unspecified)
system.caches.L2Cache_Controller.M.MEM_Inv |          26     14.77%     14.77% |          22     12.50%     27.27% |          20     11.36%     38.64% |          20     11.36%     50.00% |          27     15.34%     65.34% |          19     10.80%     76.14% |          20     11.36%     87.50% |          22     12.50%    100.00% (Unspecified)
system.caches.L2Cache_Controller.M.MEM_Inv::total          176                       (Unspecified)
system.caches.L2Cache_Controller.MT.L1_GETS |        9421     33.52%     33.52% |        4793     17.05%     50.58% |         145      0.52%     51.09% |          96      0.34%     51.43% |         216      0.77%     52.20% |          77      0.27%     52.48% |       13185     46.92%     99.39% |         171      0.61%    100.00% (Unspecified)
system.caches.L2Cache_Controller.MT.L1_GETS::total        28104                       (Unspecified)
system.caches.L2Cache_Controller.MT.L1_GETX |         501     84.06%     84.06% |          26      4.36%     88.42% |           7      1.17%     89.60% |          18      3.02%     92.62% |           5      0.84%     93.46% |          13      2.18%     95.64% |           9      1.51%     97.15% |          17      2.85%    100.00% (Unspecified)
system.caches.L2Cache_Controller.MT.L1_GETX::total          596                       (Unspecified)
system.caches.L2Cache_Controller.MT.L1_PUTX |     3833991     12.49%     12.49% |     3833979     12.49%     24.99% |     3830538     12.48%     37.47% |     3836526     12.50%     49.97% |     3837827     12.51%     62.48% |     3837357     12.51%     74.99% |     3842673     12.52%     87.51% |     3833185     12.49%    100.00% (Unspecified)
system.caches.L2Cache_Controller.MT.L1_PUTX::total     30686076                       (Unspecified)
system.caches.L2Cache_Controller.MT.MEM_Inv |         273     12.42%     12.42% |         275     12.51%     24.93% |         277     12.60%     37.53% |         277     12.60%     50.14% |         269     12.24%     62.37% |         277     12.60%     74.98% |         276     12.56%     87.53% |         274     12.47%    100.00% (Unspecified)
system.caches.L2Cache_Controller.MT.MEM_Inv::total         2198                       (Unspecified)
system.caches.L2Cache_Controller.M_I.Mem_Ack |         299     12.59%     12.59% |         297     12.51%     25.11% |         297     12.51%     37.62% |         297     12.51%     50.13% |         296     12.47%     62.59% |         296     12.47%     75.06% |         296     12.47%     87.53% |         296     12.47%    100.00% (Unspecified)
system.caches.L2Cache_Controller.M_I.Mem_Ack::total         2374                       (Unspecified)
system.caches.L2Cache_Controller.M_I.MEM_Inv |          26     14.77%     14.77% |          22     12.50%     27.27% |          20     11.36%     38.64% |          20     11.36%     50.00% |          27     15.34%     65.34% |          19     10.80%     76.14% |          20     11.36%     87.50% |          22     12.50%    100.00% (Unspecified)
system.caches.L2Cache_Controller.M_I.MEM_Inv::total          176                       (Unspecified)
system.caches.L2Cache_Controller.MT_I.WB_Data |          19     14.18%     14.18% |          17     12.69%     26.87% |          17     12.69%     39.55% |          17     12.69%     52.24% |          16     11.94%     64.18% |          16     11.94%     76.12% |          16     11.94%     88.06% |          16     11.94%    100.00% (Unspecified)
system.caches.L2Cache_Controller.MT_I.WB_Data::total          134                       (Unspecified)
system.caches.L2Cache_Controller.MT_I.Ack_all |         254     12.31%     12.31% |         258     12.50%     24.81% |         260     12.60%     37.40% |         260     12.60%     50.00% |         253     12.26%     62.26% |         261     12.65%     74.90% |         260     12.60%     87.50% |         258     12.50%    100.00% (Unspecified)
system.caches.L2Cache_Controller.MT_I.Ack_all::total         2064                       (Unspecified)
system.caches.L2Cache_Controller.MT_I.MEM_Inv |         273     12.42%     12.42% |         275     12.51%     24.93% |         277     12.60%     37.53% |         277     12.60%     50.14% |         269     12.24%     62.37% |         277     12.60%     74.98% |         276     12.56%     87.53% |         274     12.47%    100.00% (Unspecified)
system.caches.L2Cache_Controller.MT_I.MEM_Inv::total         2198                       (Unspecified)
system.caches.L2Cache_Controller.ISS.L1_GETS |           2     40.00%     40.00% |           1     20.00%     60.00% |           2     40.00%    100.00% |           0      0.00%    100.00% |           0      0.00%    100.00% |           0      0.00%    100.00% |           0      0.00%    100.00% |           0      0.00%    100.00% (Unspecified)
system.caches.L2Cache_Controller.ISS.L1_GETS::total            5                       (Unspecified)
system.caches.L2Cache_Controller.ISS.Mem_Data |        3988     12.84%     12.84% |        3876     12.48%     25.31% |        3872     12.46%     37.77% |        3909     12.58%     50.36% |        3869     12.45%     62.81% |        3877     12.48%     75.29% |        3844     12.37%     87.66% |        3834     12.34%    100.00% (Unspecified)
system.caches.L2Cache_Controller.ISS.Mem_Data::total        31069                       (Unspecified)
system.caches.L2Cache_Controller.IS.L1_GET_INSTR |          11     11.11%     11.11% |          12     12.12%     23.23% |          10     10.10%     33.33% |          10     10.10%     43.43% |          13     13.13%     56.57% |          14     14.14%     70.71% |          14     14.14%     84.85% |          15     15.15%    100.00% (Unspecified)
system.caches.L2Cache_Controller.IS.L1_GET_INSTR::total           99                       (Unspecified)
system.caches.L2Cache_Controller.IS.Mem_Data |         389     12.29%     12.29% |         393     12.41%     24.70% |         407     12.86%     37.56% |         413     13.04%     50.60% |         404     12.76%     63.36% |         404     12.76%     76.12% |         382     12.07%     88.19% |         374     11.81%    100.00% (Unspecified)
system.caches.L2Cache_Controller.IS.Mem_Data::total         3166                       (Unspecified)
system.caches.L2Cache_Controller.IM.Mem_Data |        1286     13.10%     13.10% |        1215     12.38%     25.48% |        1233     12.56%     38.04% |        1200     12.22%     50.26% |        1222     12.45%     62.71% |        1197     12.19%     74.90% |        1231     12.54%     87.44% |        1233     12.56%    100.00% (Unspecified)
system.caches.L2Cache_Controller.IM.Mem_Data::total         9817                       (Unspecified)
system.caches.L2Cache_Controller.SS_MB.L1_GETS |           0      0.00%      0.00% |           0      0.00%      0.00% |           0      0.00%      0.00% |           0      0.00%      0.00% |           0      0.00%      0.00% |           0      0.00%      0.00% |        6320    100.00%    100.00% |           0      0.00%    100.00% (Unspecified)
system.caches.L2Cache_Controller.SS_MB.L1_GETS::total         6320                       (Unspecified)
system.caches.L2Cache_Controller.SS_MB.Exclusive_Unblock |        9350     33.86%     33.86% |        4731     17.14%     51.00% |          77      0.28%     51.28% |          35      0.13%     51.41% |         151      0.55%     51.95% |          26      0.09%     52.05% |       13131     47.56%     99.61% |         109      0.39%    100.00% (Unspecified)
system.caches.L2Cache_Controller.SS_MB.Exclusive_Unblock::total        27610                       (Unspecified)
system.caches.L2Cache_Controller.MT_MB.L1_GETS |           1     25.00%     25.00% |           2     50.00%     75.00% |           0      0.00%     75.00% |           0      0.00%     75.00% |           1     25.00%    100.00% |           0      0.00%    100.00% |           0      0.00%    100.00% |           0      0.00%    100.00% (Unspecified)
system.caches.L2Cache_Controller.MT_MB.L1_GETS::total            4                       (Unspecified)
system.caches.L2Cache_Controller.MT_MB.Exclusive_Unblock |     3836793     12.50%     12.50% |     3836319     12.49%     24.99% |     3832859     12.48%     37.47% |     3838855     12.50%     49.97% |     3840142     12.51%     62.48% |     3839678     12.50%     74.99% |     3844994     12.52%     87.51% |     3835508     12.49%    100.00% (Unspecified)
system.caches.L2Cache_Controller.MT_MB.Exclusive_Unblock::total     30705148                       (Unspecified)
system.caches.L2Cache_Controller.MT_IIB.WB_Data |        9353     34.49%     34.49% |        4233     15.61%     50.10% |          82      0.30%     50.40% |          40      0.15%     50.55% |         132      0.49%     51.04% |          29      0.11%     51.15% |       13135     48.44%     99.58% |         113      0.42%    100.00% (Unspecified)
system.caches.L2Cache_Controller.MT_IIB.WB_Data::total        27117                       (Unspecified)
system.caches.L2Cache_Controller.MT_IIB.WB_Data_clean |          68      6.89%      6.89% |         560     56.74%     63.63% |          63      6.38%     70.01% |          56      5.67%     75.68% |          84      8.51%     84.19% |          48      4.86%     89.06% |          50      5.07%     94.12% |          58      5.88%    100.00% (Unspecified)
system.caches.L2Cache_Controller.MT_IIB.WB_Data_clean::total          987                       (Unspecified)
system.caches.L2Cache_Controller.MT_SB.L1_UPGRADE |           0      0.00%      0.00% |           0      0.00%      0.00% |           0      0.00%      0.00% |           0      0.00%      0.00% |           0      0.00%      0.00% |           0      0.00%      0.00% |        4188    100.00%    100.00% |           0      0.00%    100.00% (Unspecified)
system.caches.L2Cache_Controller.MT_SB.L1_UPGRADE::total         4188                       (Unspecified)
system.caches.L2Cache_Controller.MT_SB.Unblock |        9421     33.52%     33.52% |        4793     17.05%     50.58% |         145      0.52%     51.09% |          96      0.34%     51.43% |         216      0.77%     52.20% |          77      0.27%     52.48% |       13185     46.92%     99.39% |         171      0.61%    100.00% (Unspecified)
system.caches.L2Cache_Controller.MT_SB.Unblock::total        28104                       (Unspecified)
system.caches.RequestType.LD.latency_hist_seqr::bucket_size          256                       (Unspecified)
system.caches.RequestType.LD.latency_hist_seqr::max_bucket         2559                       (Unspecified)
system.caches.RequestType.LD.latency_hist_seqr::samples   2268516858                       (Unspecified)
system.caches.RequestType.LD.latency_hist_seqr::mean     1.100710                       (Unspecified)
system.caches.RequestType.LD.latency_hist_seqr::gmean     1.018454                       (Unspecified)
system.caches.RequestType.LD.latency_hist_seqr::stdev     2.345679                       (Unspecified)
system.caches.RequestType.LD.latency_hist_seqr |  2268485780    100.00%    100.00% |       26410      0.00%    100.00% |        3262      0.00%    100.00% |         353      0.00%    100.00% |         185      0.00%    100.00% |         253      0.00%    100.00% |         267      0.00%    100.00% |         347      0.00%    100.00% |           1      0.00%    100.00% |           0      0.00%    100.00% (Unspecified)
system.caches.RequestType.LD.latency_hist_seqr::total   2268516858                       (Unspecified)
system.caches.RequestType.LD.hit_latency_hist_seqr::bucket_size            1                       (Unspecified)
system.caches.RequestType.LD.hit_latency_hist_seqr::max_bucket            9                       (Unspecified)
system.caches.RequestType.LD.hit_latency_hist_seqr::samples   2253131394                       (Unspecified)
system.caches.RequestType.LD.hit_latency_hist_seqr::mean            1                       (Unspecified)
system.caches.RequestType.LD.hit_latency_hist_seqr::gmean            1                       (Unspecified)
system.caches.RequestType.LD.hit_latency_hist_seqr |           0      0.00%      0.00% |  2253131394    100.00%    100.00% |           0      0.00%    100.00% |           0      0.00%    100.00% |           0      0.00%    100.00% |           0      0.00%    100.00% |           0      0.00%    100.00% |           0      0.00%    100.00% |           0      0.00%    100.00% |           0      0.00%    100.00% (Unspecified)
system.caches.RequestType.LD.hit_latency_hist_seqr::total   2253131394                       (Unspecified)
system.caches.RequestType.LD.miss_latency_hist_seqr::bucket_size          256                       (Unspecified)
system.caches.RequestType.LD.miss_latency_hist_seqr::max_bucket         2559                       (Unspecified)
system.caches.RequestType.LD.miss_latency_hist_seqr::samples     15385464                       (Unspecified)
system.caches.RequestType.LD.miss_latency_hist_seqr::mean    15.849210                       (Unspecified)
system.caches.RequestType.LD.miss_latency_hist_seqr::gmean    14.822712                       (Unspecified)
system.caches.RequestType.LD.miss_latency_hist_seqr::stdev    24.336641                       (Unspecified)
system.caches.RequestType.LD.miss_latency_hist_seqr |    15354386     99.80%     99.80% |       26410      0.17%     99.97% |        3262      0.02%     99.99% |         353      0.00%     99.99% |         185      0.00%     99.99% |         253      0.00%    100.00% |         267      0.00%    100.00% |         347      0.00%    100.00% |           1      0.00%    100.00% |           0      0.00%    100.00% (Unspecified)
system.caches.RequestType.LD.miss_latency_hist_seqr::total     15385464                       (Unspecified)
system.caches.RequestType.ST.latency_hist_seqr::bucket_size          256                       (Unspecified)
system.caches.RequestType.ST.latency_hist_seqr::max_bucket         2559                       (Unspecified)
system.caches.RequestType.ST.latency_hist_seqr::samples    963262139                       (Unspecified)
system.caches.RequestType.ST.latency_hist_seqr::mean     1.236202                       (Unspecified)
system.caches.RequestType.ST.latency_hist_seqr::gmean     1.045147                       (Unspecified)
system.caches.RequestType.ST.latency_hist_seqr::stdev     2.482616                       (Unspecified)
system.caches.RequestType.ST.latency_hist_seqr |   963252581    100.00%    100.00% |        8390      0.00%    100.00% |         934      0.00%    100.00% |          18      0.00%    100.00% |           1      0.00%    100.00% |           9      0.00%    100.00% |          72      0.00%    100.00% |         122      0.00%    100.00% |          11      0.00%    100.00% |           1      0.00%    100.00% (Unspecified)
system.caches.RequestType.ST.latency_hist_seqr::total    963262139                       (Unspecified)
system.caches.RequestType.ST.hit_latency_hist_seqr::bucket_size            1                       (Unspecified)
system.caches.RequestType.ST.hit_latency_hist_seqr::max_bucket            9                       (Unspecified)
system.caches.RequestType.ST.hit_latency_hist_seqr::samples    947607636                       (Unspecified)
system.caches.RequestType.ST.hit_latency_hist_seqr::mean            1                       (Unspecified)
system.caches.RequestType.ST.hit_latency_hist_seqr::gmean            1                       (Unspecified)
system.caches.RequestType.ST.hit_latency_hist_seqr |           0      0.00%      0.00% |   947607636    100.00%    100.00% |           0      0.00%    100.00% |           0      0.00%    100.00% |           0      0.00%    100.00% |           0      0.00%    100.00% |           0      0.00%    100.00% |           0      0.00%    100.00% |           0      0.00%    100.00% |           0      0.00%    100.00% (Unspecified)
system.caches.RequestType.ST.hit_latency_hist_seqr::total    947607636                       (Unspecified)
system.caches.RequestType.ST.miss_latency_hist_seqr::bucket_size          256                       (Unspecified)
system.caches.RequestType.ST.miss_latency_hist_seqr::max_bucket         2559                       (Unspecified)
system.caches.RequestType.ST.miss_latency_hist_seqr::samples     15654503                       (Unspecified)
system.caches.RequestType.ST.miss_latency_hist_seqr::mean    15.534135                       (Unspecified)
system.caches.RequestType.ST.miss_latency_hist_seqr::gmean    15.136345                       (Unspecified)
system.caches.RequestType.ST.miss_latency_hist_seqr::stdev    13.093545                       (Unspecified)
system.caches.RequestType.ST.miss_latency_hist_seqr |    15644945     99.94%     99.94% |        8390      0.05%     99.99% |         934      0.01%    100.00% |          18      0.00%    100.00% |           1      0.00%    100.00% |           9      0.00%    100.00% |          72      0.00%    100.00% |         122      0.00%    100.00% |          11      0.00%    100.00% |           1      0.00%    100.00% (Unspecified)
system.caches.RequestType.ST.miss_latency_hist_seqr::total     15654503                       (Unspecified)
system.caches.RequestType.IFETCH.latency_hist_seqr::bucket_size          256                       (Unspecified)
system.caches.RequestType.IFETCH.latency_hist_seqr::max_bucket         2559                       (Unspecified)
system.caches.RequestType.IFETCH.latency_hist_seqr::samples  16533185542                       (Unspecified)
system.caches.RequestType.IFETCH.latency_hist_seqr::mean     1.000426                       (Unspecified)
system.caches.RequestType.IFETCH.latency_hist_seqr::gmean     1.000070                       (Unspecified)
system.caches.RequestType.IFETCH.latency_hist_seqr::stdev     0.253401                       (Unspecified)
system.caches.RequestType.IFETCH.latency_hist_seqr | 16533182286    100.00%    100.00% |        2280      0.00%    100.00% |         902      0.00%    100.00% |          10      0.00%    100.00% |           3      0.00%    100.00% |           2      0.00%    100.00% |          14      0.00%    100.00% |          45      0.00%    100.00% |           0      0.00%    100.00% |           0      0.00%    100.00% (Unspecified)
system.caches.RequestType.IFETCH.latency_hist_seqr::total  16533185542                       (Unspecified)
system.caches.RequestType.IFETCH.hit_latency_hist_seqr::bucket_size            1                       (Unspecified)
system.caches.RequestType.IFETCH.hit_latency_hist_seqr::max_bucket            9                       (Unspecified)
system.caches.RequestType.IFETCH.hit_latency_hist_seqr::samples  16532735787                       (Unspecified)
system.caches.RequestType.IFETCH.hit_latency_hist_seqr::mean            1                       (Unspecified)
system.caches.RequestType.IFETCH.hit_latency_hist_seqr::gmean            1                       (Unspecified)
system.caches.RequestType.IFETCH.hit_latency_hist_seqr |           0      0.00%      0.00% | 16532735787    100.00%    100.00% |           0      0.00%    100.00% |           0      0.00%    100.00% |           0      0.00%    100.00% |           0      0.00%    100.00% |           0      0.00%    100.00% |           0      0.00%    100.00% |           0      0.00%    100.00% |           0      0.00%    100.00% (Unspecified)
[...]
system.timingCpu0.exec_context.thread_0.statExecutedInstType::SimdFloatMultAcc            0      0.00%     83.99% # Class of executed instruction. (Count)
system.timingCpu0.exec_context.thread_0.statExecutedInstType::SimdFloatSqrt     24556161      0.24%     84.23% # Class of executed instruction. (Count)
system.timingCpu0.exec_context.thread_0.statExecutedInstType::SimdReduceAdd            0      0.00%     84.23% # Class of executed instruction. (Count)
system.timingCpu0.exec_context.thread_0.statExecutedInstType::SimdReduceAlu            0      0.00%     84.23% # Class of executed instruction. (Count)
system.timingCpu0.exec_context.thread_0.statExecutedInstType::SimdReduceCmp            0      0.00%     84.23% # Class of executed instruction. (Count)
system.timingCpu0.exec_context.thread_0.statExecutedInstType::SimdFloatReduceAdd            0      0.00%     84.23% # Class of executed instruction. (Count)
system.timingCpu0.exec_context.thread_0.statExecutedInstType::SimdFloatReduceCmp            0      0.00%     84.23% # Class of executed instruction. (Count)
system.timingCpu0.exec_context.thread_0.statExecutedInstType::SimdAes            0      0.00%     84.23% # Class of executed instruction. (Count)
system.timingCpu0.exec_context.thread_0.statExecutedInstType::SimdAesMix            0      0.00%     84.23% # Class of executed instruction. (Count)
system.timingCpu0.exec_context.thread_0.statExecutedInstType::SimdSha1Hash            0      0.00%     84.23% # Class of executed instruction. (Count)
system.timingCpu0.exec_context.thread_0.statExecutedInstType::SimdSha1Hash2            0      0.00%     84.23% # Class of executed instruction. (Count)
system.timingCpu0.exec_context.thread_0.statExecutedInstType::SimdSha256Hash            0      0.00%     84.23% # Class of executed instruction. (Count)
system.timingCpu0.exec_context.thread_0.statExecutedInstType::SimdSha256Hash2            0      0.00%     84.23% # Class of executed instruction. (Count)
system.timingCpu0.exec_context.thread_0.statExecutedInstType::SimdShaSigma2            0      0.00%     84.23% # Class of executed instruction. (Count)
system.timingCpu0.exec_context.thread_0.statExecutedInstType::SimdShaSigma3            0      0.00%     84.23% # Class of executed instruction. (Count)
system.timingCpu0.exec_context.thread_0.statExecutedInstType::SimdPredAlu            0      0.00%     84.23% # Class of executed instruction. (Count)
system.timingCpu0.exec_context.thread_0.statExecutedInstType::MemRead    299184637      2.92%     87.15% # Class of executed instruction. (Count)
system.timingCpu0.exec_context.thread_0.statExecutedInstType::MemWrite    223053824      2.18%     89.33% # Class of executed instruction. (Count)
system.timingCpu0.exec_context.thread_0.statExecutedInstType::FloatMemRead    833863211      8.14%     97.47% # Class of executed instruction. (Count)
system.timingCpu0.exec_context.thread_0.statExecutedInstType::FloatMemWrite    258984609      2.53%    100.00% # Class of executed instruction. (Count)
system.timingCpu0.exec_context.thread_0.statExecutedInstType::IprAccess            0      0.00%    100.00% # Class of executed instruction. (Count)
system.timingCpu0.exec_context.thread_0.statExecutedInstType::InstPrefetch            0      0.00%    100.00% # Class of executed instruction. (Count)
system.timingCpu0.exec_context.thread_0.statExecutedInstType::total  10241379144                       # Class of executed instruction. (Count)
system.timingCpu0.mmu.dtb.rdAccesses       1133332238                       # TLB accesses on read requests (Count)
system.timingCpu0.mmu.dtb.wrAccesses        482178163                       # TLB accesses on write requests (Count)
system.timingCpu0.mmu.dtb.rdMisses             284402                       # TLB misses on read requests (Count)
system.timingCpu0.mmu.dtb.wrMisses             139779                       # TLB misses on write requests (Count)
system.timingCpu0.mmu.dtb.walker.power_state.pwrStateResidencyTicks::UNDEFINED 21896476184750                       # Cumulative time (in ticks) in various power states (Tick)
system.timingCpu0.mmu.itb.rdAccesses                0                       # TLB accesses on read requests (Count)
system.timingCpu0.mmu.itb.wrAccesses       8266000654                       # TLB accesses on write requests (Count)
system.timingCpu0.mmu.itb.rdMisses                  0                       # TLB misses on read requests (Count)
system.timingCpu0.mmu.itb.wrMisses              32790                       # TLB misses on write requests (Count)
system.timingCpu0.mmu.itb.walker.power_state.pwrStateResidencyTicks::UNDEFINED 21896476184750                       # Cumulative time (in ticks) in various power states (Tick)
system.timingCpu0.power_state.pwrStateResidencyTicks::OFF 21896476184750                       # Cumulative time (in ticks) in various power states (Tick)
system.timingCpu0.thread_0.numInsts                 0                       # Number of Instructions committed (Count)
system.timingCpu0.thread_0.numOps                   0                       # Number of Ops committed (Count)
system.timingCpu0.thread_0.numMemRefs               0                       # Number of Memory References (Count)
system.timingCpu1.numCycles               19999999999                       # Number of cpu cycles simulated (Cycle)
system.timingCpu1.numWorkItemsStarted               0                       # Number of work items this cpu started (Count)
system.timingCpu1.numWorkItemsCompleted             0                       # Number of work items this cpu completed (Count)
system.timingCpu1.exec_context.thread_0.numInsts   5750029735                       # Number of instructions committed (Count)
system.timingCpu1.exec_context.thread_0.numOps  10238502481                       # Number of ops (including micro ops) committed (Count)
system.timingCpu1.exec_context.thread_0.numIntAluAccesses   6021250528                       # Number of integer alu accesses (Count)
system.timingCpu1.exec_context.thread_0.numFpAluAccesses   5565512523                       # Number of float alu accesses (Count)
system.timingCpu1.exec_context.thread_0.numVecAluAccesses            0                       # Number of vector alu accesses (Count)
system.timingCpu1.exec_context.thread_0.numCallsReturns     49967538                       # Number of times a function call or return occured (Count)
system.timingCpu1.exec_context.thread_0.numCondCtrlInsts    396719400                       # Number of instructions that are conditional controls (Count)
system.timingCpu1.exec_context.thread_0.numIntInsts   6021250528                       # Number of integer instructions (Count)
system.timingCpu1.exec_context.thread_0.numFpInsts   5565512523                       # Number of float instructions (Count)
system.timingCpu1.exec_context.thread_0.numVecInsts            0                       # Number of vector instructions (Count)
system.timingCpu1.exec_context.thread_0.numIntRegReads   6840737359                       # Number of times the integer registers were read (Count)
system.timingCpu1.exec_context.thread_0.numIntRegWrites   3877044104                       # Number of times the integer registers were written (Count)
system.timingCpu1.exec_context.thread_0.numFpRegReads   9322611155                       # Number of times the floating registers were read (Count)
system.timingCpu1.exec_context.thread_0.numFpRegWrites   4982442937                       # Number of times the floating registers were written (Count)
system.timingCpu1.exec_context.thread_0.numVecRegReads            0                       # Number of times the vector registers were read (Count)
system.timingCpu1.exec_context.thread_0.numVecRegWrites            0                       # Number of times the vector registers were written (Count)
system.timingCpu1.exec_context.thread_0.numVecPredRegReads            0                       # Number of times the predicate registers were read (Count)
system.timingCpu1.exec_context.thread_0.numVecPredRegWrites            0                       # Number of times the predicate registers were written (Count)
system.timingCpu1.exec_context.thread_0.numCCRegReads   2791873911                       # Number of times the CC registers were read (Count)
system.timingCpu1.exec_context.thread_0.numCCRegWrites   2062962978                       # Number of times the CC registers were written (Count)
system.timingCpu1.exec_context.thread_0.numMiscRegReads   3120969089                       # Number of times the Misc registers were read (Count)
system.timingCpu1.exec_context.thread_0.numMiscRegWrites       179587                       # Number of times the Misc registers were written (Count)
system.timingCpu1.exec_context.thread_0.numMemRefs   1613757171                       # Number of memory refs (Count)
system.timingCpu1.exec_context.thread_0.numLoadInsts   1132437396                       # Number of load instructions (Count)
system.timingCpu1.exec_context.thread_0.numStoreInsts    481319775                       # Number of store instructions (Count)
system.timingCpu1.exec_context.thread_0.numIdleCycles            0                       # Number of idle cycles (Cycle)
system.timingCpu1.exec_context.thread_0.numBusyCycles  19999999999                       # Number of busy cycles (Cycle)
system.timingCpu1.exec_context.thread_0.notIdleFraction            1                       # Percentage of non-idle cycles (Ratio)
system.timingCpu1.exec_context.thread_0.idleFraction            0                       # Percentage of idle cycles (Ratio)
system.timingCpu1.exec_context.thread_0.numBranches    550833871                       # Number of branches fetched (Count)
system.timingCpu1.exec_context.thread_0.statExecutedInstType::No_OpClass        31484      0.00%      0.00% # Class of executed instruction. (Count)
system.timingCpu1.exec_context.thread_0.statExecutedInstType::IntAlu   5335546748     52.11%     52.11% # Class of executed instruction. (Count)
system.timingCpu1.exec_context.thread_0.statExecutedInstType::IntMult     62646627      0.61%     52.72% # Class of executed instruction. (Count)
system.timingCpu1.exec_context.thread_0.statExecutedInstType::IntDiv       218514      0.00%     52.73% # Class of executed instruction. (Count)
system.timingCpu1.exec_context.thread_0.statExecutedInstType::FloatAdd    475889173      4.65%     57.37% # Class of executed instruction. (Count)
system.timingCpu1.exec_context.thread_0.statExecutedInstType::FloatCmp            0      0.00%     57.37% # Class of executed instruction. (Count)
system.timingCpu1.exec_context.thread_0.statExecutedInstType::FloatCvt          192      0.00%     57.37% # Class of executed instruction. (Count)
system.timingCpu1.exec_context.thread_0.statExecutedInstType::FloatMult            0      0.00%     57.37% # Class of executed instruction. (Count)
system.timingCpu1.exec_context.thread_0.statExecutedInstType::FloatMultAcc            0      0.00%     57.37% # Class of executed instruction. (Count)
system.timingCpu1.exec_context.thread_0.statExecutedInstType::FloatDiv            0      0.00%     57.37% # Class of executed instruction. (Count)
system.timingCpu1.exec_context.thread_0.statExecutedInstType::FloatMisc            0      0.00%     57.37% # Class of executed instruction. (Count)
system.timingCpu1.exec_context.thread_0.statExecutedInstType::FloatSqrt            0      0.00%     57.37% # Class of executed instruction. (Count)
system.timingCpu1.exec_context.thread_0.statExecutedInstType::SimdAdd            0      0.00%     57.37% # Class of executed instruction. (Count)
system.timingCpu1.exec_context.thread_0.statExecutedInstType::SimdAddAcc            0      0.00%     57.37% # Class of executed instruction. (Count)
system.timingCpu1.exec_context.thread_0.statExecutedInstType::SimdAlu    782733328      7.64%     65.02% # Class of executed instruction. (Count)
system.timingCpu1.exec_context.thread_0.statExecutedInstType::SimdCmp            0      0.00%     65.02% # Class of executed instruction. (Count)
system.timingCpu1.exec_context.thread_0.statExecutedInstType::SimdCvt            0      0.00%     65.02% # Class of executed instruction. (Count)
system.timingCpu1.exec_context.thread_0.statExecutedInstType::SimdMisc    255414819      2.49%     67.51% # Class of executed instruction. (Count)
system.timingCpu1.exec_context.thread_0.statExecutedInstType::SimdMult            0      0.00%     67.51% # Class of executed instruction. (Count)
system.timingCpu1.exec_context.thread_0.statExecutedInstType::SimdMultAcc            0      0.00%     67.51% # Class of executed instruction. (Count)
system.timingCpu1.exec_context.thread_0.statExecutedInstType::SimdShift            0      0.00%     67.51% # Class of executed instruction. (Count)
system.timingCpu1.exec_context.thread_0.statExecutedInstType::SimdShiftAcc            0      0.00%     67.51% # Class of executed instruction. (Count)
system.timingCpu1.exec_context.thread_0.statExecutedInstType::SimdDiv            0      0.00%     67.51% # Class of executed instruction. (Count)
system.timingCpu1.exec_context.thread_0.statExecutedInstType::SimdSqrt            0      0.00%     67.51% # Class of executed instruction. (Count)
system.timingCpu1.exec_context.thread_0.statExecutedInstType::SimdFloatAdd    824471102      8.05%     75.57% # Class of executed instruction. (Count)
system.timingCpu1.exec_context.thread_0.statExecutedInstType::SimdFloatAlu            0      0.00%     75.57% # Class of executed instruction. (Count)
system.timingCpu1.exec_context.thread_0.statExecutedInstType::SimdFloatCmp            0      0.00%     75.57% # Class of executed instruction. (Count)
system.timingCpu1.exec_context.thread_0.statExecutedInstType::SimdFloatCvt    373484079      3.65%     79.22% # Class of executed instruction. (Count)
system.timingCpu1.exec_context.thread_0.statExecutedInstType::SimdFloatDiv     24568855      0.24%     79.46% # Class of executed instruction. (Count)
system.timingCpu1.exec_context.thread_0.statExecutedInstType::SimdFloatMisc            0      0.00%     79.46% # Class of executed instruction. (Count)
system.timingCpu1.exec_context.thread_0.statExecutedInstType::SimdFloatMult    465171534      4.54%     84.00% # Class of executed instruction. (Count)
system.timingCpu1.exec_context.thread_0.statExecutedInstType::SimdFloatMultAcc            0      0.00%     84.00% # Class of executed instruction. (Count)
system.timingCpu1.exec_context.thread_0.statExecutedInstType::SimdFloatSqrt     24568855      0.24%     84.24% # Class of executed instruction. (Count)
system.timingCpu1.exec_context.thread_0.statExecutedInstType::SimdReduceAdd            0      0.00%     84.24% # Class of executed instruction. (Count)
system.timingCpu1.exec_context.thread_0.statExecutedInstType::SimdReduceAlu            0      0.00%     84.24% # Class of executed instruction. (Count)
system.timingCpu1.exec_context.thread_0.statExecutedInstType::SimdReduceCmp            0      0.00%     84.24% # Class of executed instruction. (Count)
system.timingCpu1.exec_context.thread_0.statExecutedInstType::SimdFloatReduceAdd            0      0.00%     84.24% # Class of executed instruction. (Count)
system.timingCpu1.exec_context.thread_0.statExecutedInstType::SimdFloatReduceCmp            0      0.00%     84.24% # Class of executed instruction. (Count)
system.timingCpu1.exec_context.thread_0.statExecutedInstType::SimdAes            0      0.00%     84.24% # Class of executed instruction. (Count)
system.timingCpu1.exec_context.thread_0.statExecutedInstType::SimdAesMix            0      0.00%     84.24% # Class of executed instruction. (Count)
system.timingCpu1.exec_context.thread_0.statExecutedInstType::SimdSha1Hash            0      0.00%     84.24% # Class of executed instruction. (Count)
system.timingCpu1.exec_context.thread_0.statExecutedInstType::SimdSha1Hash2            0      0.00%     84.24% # Class of executed instruction. (Count)
system.timingCpu1.exec_context.thread_0.statExecutedInstType::SimdSha256Hash            0      0.00%     84.24% # Class of executed instruction. (Count)
system.timingCpu1.exec_context.thread_0.statExecutedInstType::SimdSha256Hash2            0      0.00%     84.24% # Class of executed instruction. (Count)
system.timingCpu1.exec_context.thread_0.statExecutedInstType::SimdShaSigma2            0      0.00%     84.24% # Class of executed instruction. (Count)
system.timingCpu1.exec_context.thread_0.statExecutedInstType::SimdShaSigma3            0      0.00%     84.24% # Class of executed instruction. (Count)
system.timingCpu1.exec_context.thread_0.statExecutedInstType::SimdPredAlu            0      0.00%     84.24% # Class of executed instruction. (Count)
system.timingCpu1.exec_context.thread_0.statExecutedInstType::MemRead    298126396      2.91%     87.15% # Class of executed instruction. (Count)
system.timingCpu1.exec_context.thread_0.statExecutedInstType::MemWrite    222224897      2.17%     89.32% # Class of executed instruction. (Count)
system.timingCpu1.exec_context.thread_0.statExecutedInstType::FloatMemRead    834311000      8.15%     97.47% # Class of executed instruction. (Count)
system.timingCpu1.exec_context.thread_0.statExecutedInstType::FloatMemWrite    259094878      2.53%    100.00% # Class of executed instruction. (Count)
system.timingCpu1.exec_context.thread_0.statExecutedInstType::IprAccess            0      0.00%    100.00% # Class of executed instruction. (Count)
system.timingCpu1.exec_context.thread_0.statExecutedInstType::InstPrefetch            0      0.00%    100.00% # Class of executed instruction. (Count)
system.timingCpu1.exec_context.thread_0.statExecutedInstType::total  10238502481                       # Class of executed instruction. (Count)
system.timingCpu1.mmu.dtb.rdAccesses       1132708310                       # TLB accesses on read requests (Count)
system.timingCpu1.mmu.dtb.wrAccesses        481455186                       # TLB accesses on write requests (Count)
system.timingCpu1.mmu.dtb.rdMisses             272692                       # TLB misses on read requests (Count)
system.timingCpu1.mmu.dtb.wrMisses             135964                       # TLB misses on write requests (Count)
system.timingCpu1.mmu.dtb.walker.power_state.pwrStateResidencyTicks::UNDEFINED 21896476184750                       # Cumulative time (in ticks) in various power states (Tick)
system.timingCpu1.mmu.itb.rdAccesses                0                       # TLB accesses on read requests (Count)
system.timingCpu1.mmu.itb.wrAccesses       8267250616                       # TLB accesses on write requests (Count)
system.timingCpu1.mmu.itb.rdMisses                  0                       # TLB misses on read requests (Count)
system.timingCpu1.mmu.itb.wrMisses              32938                       # TLB misses on write requests (Count)
system.timingCpu1.mmu.itb.walker.power_state.pwrStateResidencyTicks::UNDEFINED 21896476184750                       # Cumulative time (in ticks) in various power states (Tick)
system.timingCpu1.power_state.pwrStateResidencyTicks::OFF 21896476184750                       # Cumulative time (in ticks) in various power states (Tick)
system.timingCpu1.thread_0.numInsts                 0                       # Number of Instructions committed (Count)
system.timingCpu1.thread_0.numOps                   0                       # Number of Ops committed (Count)
system.timingCpu1.thread_0.numMemRefs               0                       # Number of Memory References (Count)
system.workload.inst.arm                            0                       # number of arm instructions executed (Count)
system.workload.inst.quiesce                        0                       # number of quiesce instructions executed (Count)

---------- End Simulation Statistics   ----------
