
---------- Begin Simulation Statistics ----------
simSeconds                                   0.020000                       # Number of seconds simulated (Second)
simTicks                                  20000000000                       # Number of ticks simulated (Tick)
finalTick                                 20000000000                       # Number of ticks from beginning of simulation (restored from checkpoints and never reset) (Tick)
simFreq                                  1000000000000                       # The number of ticks per simulated second ((Tick/Second))
hostSeconds                                    126.48                       # Real time elapsed on the host (Second)
hostTickRate                                158132949                       # The number of ticks simulated per host second (ticks/s) ((Tick/Second))
hostMemory                                    5021808                       # Number of bytes of host memory used (Byte)
system.clk_domain.clock                           250                       # Clock period in ticks (Tick)
system.clk_domain.voltage_domain.voltage            1                       # Voltage in Volts (Volt)
system.far_mem_ctrl.avgPriority_writebacks::samples   4677479.00                       # Average QoS priority value for accepted requests (Count)
system.far_mem_ctrl.priorityMinLatency   0.000000017492                       # per QoS priority minimum request to response latency (Second)
system.far_mem_ctrl.priorityMaxLatency   0.000131256714                       # per QoS priority maximum request to response latency (Second)
system.far_mem_ctrl.numReadWriteTurnArounds            0                       # Number of turnarounds from READ to WRITE (Count)
system.far_mem_ctrl.numWriteReadTurnArounds            0                       # Number of turnarounds from WRITE to READ (Count)
system.far_mem_ctrl.numStayReadState          4902987                       # Number of times bus staying in READ state (Count)
system.far_mem_ctrl.numStayWriteState               0                       # Number of times bus staying in WRITE state (Count)
system.far_mem_ctrl.readReqs                  2262029                       # Number of read requests accepted (Count)
system.far_mem_ctrl.writeReqs                 3410984                       # Number of write requests accepted (Count)
system.far_mem_ctrl.readBursts                2262029                       # Number of controller read bursts, including those serviced by the write queue (Count)
system.far_mem_ctrl.writeBursts               3410984                       # Number of controller write bursts, including those merged in the write queue (Count)
system.far_mem_ctrl.servicedByWrQ                5300                       # Number of controller read bursts serviced by the write queue (Count)
system.far_mem_ctrl.mergedWrBursts             990234                       # Number of controller write bursts merged with an existing one (Count)
system.far_mem_ctrl.avgRdQLen                   41.15                       # Average read queue length when enqueuing ((Count/Tick))
system.far_mem_ctrl.avgWrQLen                  100.50                       # Average write queue length when enqueuing ((Count/Tick))
system.far_mem_ctrl.numRdRetry                2124801                       # Number of times read queue was full causing retry (Count)
system.far_mem_ctrl.numWrRetry                2269573                       # Number of times write queue was full causing retry (Count)
system.far_mem_ctrl.readPktSize::0                  0                       # Read request sizes (log2) (Count)
system.far_mem_ctrl.readPktSize::1                  0                       # Read request sizes (log2) (Count)
system.far_mem_ctrl.readPktSize::2                  0                       # Read request sizes (log2) (Count)
system.far_mem_ctrl.readPktSize::3                  0                       # Read request sizes (log2) (Count)
system.far_mem_ctrl.readPktSize::4                  0                       # Read request sizes (log2) (Count)
system.far_mem_ctrl.readPktSize::5                  0                       # Read request sizes (log2) (Count)
system.far_mem_ctrl.readPktSize::6            2262029                       # Read request sizes (log2) (Count)
system.far_mem_ctrl.writePktSize::0                 0                       # Write request sizes (log2) (Count)
system.far_mem_ctrl.writePktSize::1                 0                       # Write request sizes (log2) (Count)
system.far_mem_ctrl.writePktSize::2                 0                       # Write request sizes (log2) (Count)
system.far_mem_ctrl.writePktSize::3                 0                       # Write request sizes (log2) (Count)
system.far_mem_ctrl.writePktSize::4                 0                       # Write request sizes (log2) (Count)
system.far_mem_ctrl.writePktSize::5                 0                       # Write request sizes (log2) (Count)
system.far_mem_ctrl.writePktSize::6           3410984                       # Write request sizes (log2) (Count)
system.far_mem_ctrl.rdQLenPdf::0                 9598                       # What read queue length does an incoming req see (Count)
system.far_mem_ctrl.rdQLenPdf::1                11299                       # What read queue length does an incoming req see (Count)
system.far_mem_ctrl.rdQLenPdf::2                12926                       # What read queue length does an incoming req see (Count)
system.far_mem_ctrl.rdQLenPdf::3                14757                       # What read queue length does an incoming req see (Count)
system.far_mem_ctrl.rdQLenPdf::4                17461                       # What read queue length does an incoming req see (Count)
system.far_mem_ctrl.rdQLenPdf::5                21186                       # What read queue length does an incoming req see (Count)
system.far_mem_ctrl.rdQLenPdf::6                25913                       # What read queue length does an incoming req see (Count)
system.far_mem_ctrl.rdQLenPdf::7                30371                       # What read queue length does an incoming req see (Count)
system.far_mem_ctrl.rdQLenPdf::8                33121                       # What read queue length does an incoming req see (Count)
system.far_mem_ctrl.rdQLenPdf::9                33405                       # What read queue length does an incoming req see (Count)
system.far_mem_ctrl.rdQLenPdf::10               32969                       # What read queue length does an incoming req see (Count)
system.far_mem_ctrl.rdQLenPdf::11               31294                       # What read queue length does an incoming req see (Count)
system.far_mem_ctrl.rdQLenPdf::12               29406                       # What read queue length does an incoming req see (Count)
system.far_mem_ctrl.rdQLenPdf::13               27244                       # What read queue length does an incoming req see (Count)
system.far_mem_ctrl.rdQLenPdf::14               26084                       # What read queue length does an incoming req see (Count)
system.far_mem_ctrl.rdQLenPdf::15               25687                       # What read queue length does an incoming req see (Count)
system.far_mem_ctrl.rdQLenPdf::16               26110                       # What read queue length does an incoming req see (Count)
system.far_mem_ctrl.rdQLenPdf::17               27738                       # What read queue length does an incoming req see (Count)
system.far_mem_ctrl.rdQLenPdf::18               29903                       # What read queue length does an incoming req see (Count)
system.far_mem_ctrl.rdQLenPdf::19               32172                       # What read queue length does an incoming req see (Count)
system.far_mem_ctrl.rdQLenPdf::20               34859                       # What read queue length does an incoming req see (Count)
system.far_mem_ctrl.rdQLenPdf::21               37867                       # What read queue length does an incoming req see (Count)
system.far_mem_ctrl.rdQLenPdf::22               39937                       # What read queue length does an incoming req see (Count)
system.far_mem_ctrl.rdQLenPdf::23               41379                       # What read queue length does an incoming req see (Count)
system.far_mem_ctrl.rdQLenPdf::24               42119                       # What read queue length does an incoming req see (Count)
system.far_mem_ctrl.rdQLenPdf::25               42321                       # What read queue length does an incoming req see (Count)
system.far_mem_ctrl.rdQLenPdf::26               41976                       # What read queue length does an incoming req see (Count)
system.far_mem_ctrl.rdQLenPdf::27               41127                       # What read queue length does an incoming req see (Count)
system.far_mem_ctrl.rdQLenPdf::28               39867                       # What read queue length does an incoming req see (Count)
system.far_mem_ctrl.rdQLenPdf::29               37673                       # What read queue length does an incoming req see (Count)
system.far_mem_ctrl.rdQLenPdf::30               35094                       # What read queue length does an incoming req see (Count)
system.far_mem_ctrl.rdQLenPdf::31               32545                       # What read queue length does an incoming req see (Count)
system.far_mem_ctrl.rdQLenPdf::32               30574                       # What read queue length does an incoming req see (Count)
system.far_mem_ctrl.rdQLenPdf::33               28455                       # What read queue length does an incoming req see (Count)
system.far_mem_ctrl.rdQLenPdf::34               26323                       # What read queue length does an incoming req see (Count)
system.far_mem_ctrl.rdQLenPdf::35               24019                       # What read queue length does an incoming req see (Count)
system.far_mem_ctrl.rdQLenPdf::36               21086                       # What read queue length does an incoming req see (Count)
system.far_mem_ctrl.rdQLenPdf::37               19316                       # What read queue length does an incoming req see (Count)
system.far_mem_ctrl.rdQLenPdf::38               17984                       # What read queue length does an incoming req see (Count)
system.far_mem_ctrl.rdQLenPdf::39               16456                       # What read queue length does an incoming req see (Count)
system.far_mem_ctrl.rdQLenPdf::40               15139                       # What read queue length does an incoming req see (Count)
system.far_mem_ctrl.rdQLenPdf::41               13960                       # What read queue length does an incoming req see (Count)
system.far_mem_ctrl.rdQLenPdf::42               13132                       # What read queue length does an incoming req see (Count)
system.far_mem_ctrl.rdQLenPdf::43               12113                       # What read queue length does an incoming req see (Count)
system.far_mem_ctrl.rdQLenPdf::44               11320                       # What read queue length does an incoming req see (Count)
system.far_mem_ctrl.rdQLenPdf::45               11067                       # What read queue length does an incoming req see (Count)
system.far_mem_ctrl.rdQLenPdf::46               10505                       # What read queue length does an incoming req see (Count)
system.far_mem_ctrl.rdQLenPdf::47               10016                       # What read queue length does an incoming req see (Count)
system.far_mem_ctrl.rdQLenPdf::48                9624                       # What read queue length does an incoming req see (Count)
system.far_mem_ctrl.rdQLenPdf::49                9516                       # What read queue length does an incoming req see (Count)
system.far_mem_ctrl.rdQLenPdf::50                9278                       # What read queue length does an incoming req see (Count)
system.far_mem_ctrl.rdQLenPdf::51                9160                       # What read queue length does an incoming req see (Count)
system.far_mem_ctrl.rdQLenPdf::52                8887                       # What read queue length does an incoming req see (Count)
system.far_mem_ctrl.rdQLenPdf::53                8594                       # What read queue length does an incoming req see (Count)
system.far_mem_ctrl.rdQLenPdf::54                8330                       # What read queue length does an incoming req see (Count)
system.far_mem_ctrl.rdQLenPdf::55                8105                       # What read queue length does an incoming req see (Count)
system.far_mem_ctrl.rdQLenPdf::56                8039                       # What read queue length does an incoming req see (Count)
system.far_mem_ctrl.rdQLenPdf::57                7964                       # What read queue length does an incoming req see (Count)
system.far_mem_ctrl.rdQLenPdf::58                7897                       # What read queue length does an incoming req see (Count)
system.far_mem_ctrl.rdQLenPdf::59                8061                       # What read queue length does an incoming req see (Count)
system.far_mem_ctrl.rdQLenPdf::60                7920                       # What read queue length does an incoming req see (Count)
system.far_mem_ctrl.rdQLenPdf::61                7705                       # What read queue length does an incoming req see (Count)
system.far_mem_ctrl.rdQLenPdf::62                7668                       # What read queue length does an incoming req see (Count)
system.far_mem_ctrl.rdQLenPdf::63              883108                       # What read queue length does an incoming req see (Count)
system.far_mem_ctrl.wrQLenPdf::0                    1                       # What write queue length does an incoming req see (Count)
system.far_mem_ctrl.wrQLenPdf::1                    1                       # What write queue length does an incoming req see (Count)
system.far_mem_ctrl.wrQLenPdf::2                    1                       # What write queue length does an incoming req see (Count)
system.far_mem_ctrl.wrQLenPdf::3                    1                       # What write queue length does an incoming req see (Count)
system.far_mem_ctrl.wrQLenPdf::4                    1                       # What write queue length does an incoming req see (Count)
system.far_mem_ctrl.wrQLenPdf::5                    1                       # What write queue length does an incoming req see (Count)
system.far_mem_ctrl.wrQLenPdf::6                    1                       # What write queue length does an incoming req see (Count)
system.far_mem_ctrl.wrQLenPdf::7                    1                       # What write queue length does an incoming req see (Count)
system.far_mem_ctrl.wrQLenPdf::8                    1                       # What write queue length does an incoming req see (Count)
system.far_mem_ctrl.wrQLenPdf::9                    1                       # What write queue length does an incoming req see (Count)
system.far_mem_ctrl.wrQLenPdf::10                   1                       # What write queue length does an incoming req see (Count)
system.far_mem_ctrl.wrQLenPdf::11                   1                       # What write queue length does an incoming req see (Count)
system.far_mem_ctrl.wrQLenPdf::12                   1                       # What write queue length does an incoming req see (Count)
system.far_mem_ctrl.wrQLenPdf::13                   1                       # What write queue length does an incoming req see (Count)
system.far_mem_ctrl.wrQLenPdf::14                   1                       # What write queue length does an incoming req see (Count)
system.far_mem_ctrl.wrQLenPdf::15                   1                       # What write queue length does an incoming req see (Count)
system.far_mem_ctrl.wrQLenPdf::16                   1                       # What write queue length does an incoming req see (Count)
system.far_mem_ctrl.wrQLenPdf::17                   1                       # What write queue length does an incoming req see (Count)
system.far_mem_ctrl.wrQLenPdf::18                   1                       # What write queue length does an incoming req see (Count)
system.far_mem_ctrl.wrQLenPdf::19                   1                       # What write queue length does an incoming req see (Count)
system.far_mem_ctrl.wrQLenPdf::20                   1                       # What write queue length does an incoming req see (Count)
system.far_mem_ctrl.wrQLenPdf::21                   1                       # What write queue length does an incoming req see (Count)
system.far_mem_ctrl.wrQLenPdf::22                   1                       # What write queue length does an incoming req see (Count)
system.far_mem_ctrl.wrQLenPdf::23                   1                       # What write queue length does an incoming req see (Count)
system.far_mem_ctrl.wrQLenPdf::24                   1                       # What write queue length does an incoming req see (Count)
system.far_mem_ctrl.wrQLenPdf::25                   1                       # What write queue length does an incoming req see (Count)
system.far_mem_ctrl.wrQLenPdf::26                   1                       # What write queue length does an incoming req see (Count)
system.far_mem_ctrl.wrQLenPdf::27                   1                       # What write queue length does an incoming req see (Count)
system.far_mem_ctrl.wrQLenPdf::28                   1                       # What write queue length does an incoming req see (Count)
system.far_mem_ctrl.wrQLenPdf::29                   1                       # What write queue length does an incoming req see (Count)
system.far_mem_ctrl.wrQLenPdf::30                   1                       # What write queue length does an incoming req see (Count)
system.far_mem_ctrl.wrQLenPdf::31                   1                       # What write queue length does an incoming req see (Count)
system.far_mem_ctrl.wrQLenPdf::32                   1                       # What write queue length does an incoming req see (Count)
system.far_mem_ctrl.wrQLenPdf::33                   1                       # What write queue length does an incoming req see (Count)
system.far_mem_ctrl.wrQLenPdf::34                   1                       # What write queue length does an incoming req see (Count)
system.far_mem_ctrl.wrQLenPdf::35                   1                       # What write queue length does an incoming req see (Count)
system.far_mem_ctrl.wrQLenPdf::36                   1                       # What write queue length does an incoming req see (Count)
system.far_mem_ctrl.wrQLenPdf::37                   1                       # What write queue length does an incoming req see (Count)
system.far_mem_ctrl.wrQLenPdf::38                   1                       # What write queue length does an incoming req see (Count)
system.far_mem_ctrl.wrQLenPdf::39                   1                       # What write queue length does an incoming req see (Count)
system.far_mem_ctrl.wrQLenPdf::40                   1                       # What write queue length does an incoming req see (Count)
system.far_mem_ctrl.wrQLenPdf::41                   1                       # What write queue length does an incoming req see (Count)
system.far_mem_ctrl.wrQLenPdf::42                   1                       # What write queue length does an incoming req see (Count)
system.far_mem_ctrl.wrQLenPdf::43                   1                       # What write queue length does an incoming req see (Count)
system.far_mem_ctrl.wrQLenPdf::44                   1                       # What write queue length does an incoming req see (Count)
system.far_mem_ctrl.wrQLenPdf::45                   1                       # What write queue length does an incoming req see (Count)
system.far_mem_ctrl.wrQLenPdf::46                   1                       # What write queue length does an incoming req see (Count)
system.far_mem_ctrl.wrQLenPdf::47               11465                       # What write queue length does an incoming req see (Count)
system.far_mem_ctrl.wrQLenPdf::48               15032                       # What write queue length does an incoming req see (Count)
system.far_mem_ctrl.wrQLenPdf::49               16244                       # What write queue length does an incoming req see (Count)
system.far_mem_ctrl.wrQLenPdf::50               16722                       # What write queue length does an incoming req see (Count)
system.far_mem_ctrl.wrQLenPdf::51               17161                       # What write queue length does an incoming req see (Count)
system.far_mem_ctrl.wrQLenPdf::52               17800                       # What write queue length does an incoming req see (Count)
system.far_mem_ctrl.wrQLenPdf::53               18293                       # What write queue length does an incoming req see (Count)
system.far_mem_ctrl.wrQLenPdf::54               18766                       # What write queue length does an incoming req see (Count)
system.far_mem_ctrl.wrQLenPdf::55               19162                       # What write queue length does an incoming req see (Count)
system.far_mem_ctrl.wrQLenPdf::56               19764                       # What write queue length does an incoming req see (Count)
system.far_mem_ctrl.wrQLenPdf::57               19993                       # What write queue length does an incoming req see (Count)
system.far_mem_ctrl.wrQLenPdf::58               20471                       # What write queue length does an incoming req see (Count)
system.far_mem_ctrl.wrQLenPdf::59               20675                       # What write queue length does an incoming req see (Count)
system.far_mem_ctrl.wrQLenPdf::60               20841                       # What write queue length does an incoming req see (Count)
system.far_mem_ctrl.wrQLenPdf::61               21061                       # What write queue length does an incoming req see (Count)
system.far_mem_ctrl.wrQLenPdf::62               21682                       # What write queue length does an incoming req see (Count)
system.far_mem_ctrl.wrQLenPdf::63               22139                       # What write queue length does an incoming req see (Count)
system.far_mem_ctrl.wrQLenPdf::64               21987                       # What write queue length does an incoming req see (Count)
system.far_mem_ctrl.wrQLenPdf::65               20585                       # What write queue length does an incoming req see (Count)
system.far_mem_ctrl.wrQLenPdf::66               19990                       # What write queue length does an incoming req see (Count)
system.far_mem_ctrl.wrQLenPdf::67               19700                       # What write queue length does an incoming req see (Count)
system.far_mem_ctrl.wrQLenPdf::68               19425                       # What write queue length does an incoming req see (Count)
system.far_mem_ctrl.wrQLenPdf::69               19353                       # What write queue length does an incoming req see (Count)
system.far_mem_ctrl.wrQLenPdf::70               19104                       # What write queue length does an incoming req see (Count)
system.far_mem_ctrl.wrQLenPdf::71               19002                       # What write queue length does an incoming req see (Count)
system.far_mem_ctrl.wrQLenPdf::72               18990                       # What write queue length does an incoming req see (Count)
system.far_mem_ctrl.wrQLenPdf::73               18826                       # What write queue length does an incoming req see (Count)
system.far_mem_ctrl.wrQLenPdf::74               19072                       # What write queue length does an incoming req see (Count)
system.far_mem_ctrl.wrQLenPdf::75               18925                       # What write queue length does an incoming req see (Count)
system.far_mem_ctrl.wrQLenPdf::76               18915                       # What write queue length does an incoming req see (Count)
system.far_mem_ctrl.wrQLenPdf::77               18785                       # What write queue length does an incoming req see (Count)
system.far_mem_ctrl.wrQLenPdf::78               18418                       # What write queue length does an incoming req see (Count)
system.far_mem_ctrl.wrQLenPdf::79               18021                       # What write queue length does an incoming req see (Count)
system.far_mem_ctrl.wrQLenPdf::80               17783                       # What write queue length does an incoming req see (Count)
system.far_mem_ctrl.wrQLenPdf::81               17817                       # What write queue length does an incoming req see (Count)
system.far_mem_ctrl.wrQLenPdf::82               17856                       # What write queue length does an incoming req see (Count)
system.far_mem_ctrl.wrQLenPdf::83               17856                       # What write queue length does an incoming req see (Count)
system.far_mem_ctrl.wrQLenPdf::84               17804                       # What write queue length does an incoming req see (Count)
system.far_mem_ctrl.wrQLenPdf::85               17807                       # What write queue length does an incoming req see (Count)
system.far_mem_ctrl.wrQLenPdf::86               17685                       # What write queue length does an incoming req see (Count)
system.far_mem_ctrl.wrQLenPdf::87               17532                       # What write queue length does an incoming req see (Count)
system.far_mem_ctrl.wrQLenPdf::88               17227                       # What write queue length does an incoming req see (Count)
system.far_mem_ctrl.wrQLenPdf::89               17272                       # What write queue length does an incoming req see (Count)
system.far_mem_ctrl.wrQLenPdf::90               17230                       # What write queue length does an incoming req see (Count)
system.far_mem_ctrl.wrQLenPdf::91               17068                       # What write queue length does an incoming req see (Count)
system.far_mem_ctrl.wrQLenPdf::92               17199                       # What write queue length does an incoming req see (Count)
system.far_mem_ctrl.wrQLenPdf::93               17066                       # What write queue length does an incoming req see (Count)
system.far_mem_ctrl.wrQLenPdf::94               16904                       # What write queue length does an incoming req see (Count)
system.far_mem_ctrl.wrQLenPdf::95               16821                       # What write queue length does an incoming req see (Count)
system.far_mem_ctrl.wrQLenPdf::96               16667                       # What write queue length does an incoming req see (Count)
system.far_mem_ctrl.wrQLenPdf::97               16534                       # What write queue length does an incoming req see (Count)
system.far_mem_ctrl.wrQLenPdf::98               16493                       # What write queue length does an incoming req see (Count)
system.far_mem_ctrl.wrQLenPdf::99               16507                       # What write queue length does an incoming req see (Count)
system.far_mem_ctrl.wrQLenPdf::100              16396                       # What write queue length does an incoming req see (Count)
system.far_mem_ctrl.wrQLenPdf::101              16047                       # What write queue length does an incoming req see (Count)
system.far_mem_ctrl.wrQLenPdf::102              15898                       # What write queue length does an incoming req see (Count)
system.far_mem_ctrl.wrQLenPdf::103              15787                       # What write queue length does an incoming req see (Count)
system.far_mem_ctrl.wrQLenPdf::104              15984                       # What write queue length does an incoming req see (Count)
system.far_mem_ctrl.wrQLenPdf::105              15918                       # What write queue length does an incoming req see (Count)
system.far_mem_ctrl.wrQLenPdf::106              15694                       # What write queue length does an incoming req see (Count)
system.far_mem_ctrl.wrQLenPdf::107              15739                       # What write queue length does an incoming req see (Count)
system.far_mem_ctrl.wrQLenPdf::108              15922                       # What write queue length does an incoming req see (Count)
system.far_mem_ctrl.wrQLenPdf::109              15766                       # What write queue length does an incoming req see (Count)
system.far_mem_ctrl.wrQLenPdf::110              15517                       # What write queue length does an incoming req see (Count)
system.far_mem_ctrl.wrQLenPdf::111              15521                       # What write queue length does an incoming req see (Count)
system.far_mem_ctrl.wrQLenPdf::112              15329                       # What write queue length does an incoming req see (Count)
system.far_mem_ctrl.wrQLenPdf::113              15259                       # What write queue length does an incoming req see (Count)
system.far_mem_ctrl.wrQLenPdf::114              15090                       # What write queue length does an incoming req see (Count)
system.far_mem_ctrl.wrQLenPdf::115              15242                       # What write queue length does an incoming req see (Count)
system.far_mem_ctrl.wrQLenPdf::116              15043                       # What write queue length does an incoming req see (Count)
system.far_mem_ctrl.wrQLenPdf::117              14969                       # What write queue length does an incoming req see (Count)
system.far_mem_ctrl.wrQLenPdf::118              14908                       # What write queue length does an incoming req see (Count)
system.far_mem_ctrl.wrQLenPdf::119              14529                       # What write queue length does an incoming req see (Count)
system.far_mem_ctrl.wrQLenPdf::120              14341                       # What write queue length does an incoming req see (Count)
system.far_mem_ctrl.wrQLenPdf::121              14457                       # What write queue length does an incoming req see (Count)
system.far_mem_ctrl.wrQLenPdf::122              14361                       # What write queue length does an incoming req see (Count)
system.far_mem_ctrl.wrQLenPdf::123              14550                       # What write queue length does an incoming req see (Count)
system.far_mem_ctrl.wrQLenPdf::124              15693                       # What write queue length does an incoming req see (Count)
system.far_mem_ctrl.wrQLenPdf::125              17499                       # What write queue length does an incoming req see (Count)
system.far_mem_ctrl.wrQLenPdf::126              24057                       # What write queue length does an incoming req see (Count)
system.far_mem_ctrl.wrQLenPdf::127            1023690                       # What write queue length does an incoming req see (Count)
system.far_mem_ctrl.rdPerTurnAround::samples        11465                       # Reads before turning the bus around for writes (Count)
system.far_mem_ctrl.rdPerTurnAround::0          11465    100.00%    100.00% # Reads before turning the bus around for writes (Count)
system.far_mem_ctrl.rdPerTurnAround::total        11465                       # Reads before turning the bus around for writes (Count)
system.far_mem_ctrl.wrPerTurnAround::samples        11464                       # Writes before turning the bus around for reads (Count)
system.far_mem_ctrl.wrPerTurnAround::0          11464    100.00%    100.00% # Writes before turning the bus around for reads (Count)
system.far_mem_ctrl.wrPerTurnAround::total        11464                       # Writes before turning the bus around for reads (Count)
system.far_mem_ctrl.bytesReadWrQ               339200                       # Total number of bytes read from write queue (Byte)
system.far_mem_ctrl.bytesReadSys            144769856                       # Total read bytes from the system interface side (Byte)
system.far_mem_ctrl.bytesWrittenSys         218302976                       # Total written bytes from the system interface side (Byte)
system.far_mem_ctrl.avgRdBWSys           7238492800.00000000                       # Average system read bandwidth in Byte/s ((Byte/Second))
system.far_mem_ctrl.avgWrBWSys           10915148800.00000000                       # Average system write bandwidth in Byte/s ((Byte/Second))
system.far_mem_ctrl.totGap                19999930542                       # Total gap between requests (Tick)
system.far_mem_ctrl.avgGap                    3525.45                       # Average gap between requests ((Tick/Count))
system.far_mem_ctrl.requestorReadBytes::writebacks    144427712                       # Per-requestor bytes read from memory (Byte)
system.far_mem_ctrl.requestorWriteBytes::writebacks    154919808                       # Per-requestor bytes write to memory (Byte)
system.far_mem_ctrl.requestorReadRate::writebacks 7221385600.000000000000                       # Per-requestor bytes read from memory rate ((Byte/Second))
system.far_mem_ctrl.requestorWriteRate::writebacks 7745990400.000000000000                       # Per-requestor bytes write to memory rate ((Byte/Second))
system.far_mem_ctrl.requestorReadAccesses::writebacks      2262029                       # Per-requestor read serviced memory accesses (Count)
system.far_mem_ctrl.requestorWriteAccesses::writebacks      3410984                       # Per-requestor write serviced memory accesses (Count)
system.far_mem_ctrl.requestorReadTotalLat::writebacks 678201350299                       # Per-requestor read total memory access latency (Tick)
system.far_mem_ctrl.requestorWriteTotalLat::writebacks 1980318146431                       # Per-requestor write total memory access latency (Tick)
system.far_mem_ctrl.requestorReadAvgLat::writebacks    299819.92                       # Per-requestor read average memory access latency ((Tick/Count))
system.far_mem_ctrl.requestorWriteAvgLat::writebacks    580570.93                       # Per-requestor write average memory access latency ((Tick/Count))
system.far_mem_ctrl.dram.bytesRead::writebacks    144766912                       # Number of bytes read from this memory (Byte)
system.far_mem_ctrl.dram.bytesRead::total    144766912                       # Number of bytes read from this memory (Byte)
system.far_mem_ctrl.dram.bytesWritten::writebacks    218302976                       # Number of bytes written to this memory (Byte)
system.far_mem_ctrl.dram.bytesWritten::total    218302976                       # Number of bytes written to this memory (Byte)
system.far_mem_ctrl.dram.numReads::writebacks      2261983                       # Number of read requests responded to by this memory (Count)
system.far_mem_ctrl.dram.numReads::total      2261983                       # Number of read requests responded to by this memory (Count)
system.far_mem_ctrl.dram.numWrites::writebacks      3410984                       # Number of write requests responded to by this memory (Count)
system.far_mem_ctrl.dram.numWrites::total      3410984                       # Number of write requests responded to by this memory (Count)
system.far_mem_ctrl.dram.bwRead::writebacks   7238345600                       # Total read bandwidth from this memory ((Byte/Second))
system.far_mem_ctrl.dram.bwRead::total     7238345600                       # Total read bandwidth from this memory ((Byte/Second))
system.far_mem_ctrl.dram.bwWrite::writebacks  10915148800                       # Write bandwidth from this memory ((Byte/Second))
system.far_mem_ctrl.dram.bwWrite::total   10915148800                       # Write bandwidth from this memory ((Byte/Second))
system.far_mem_ctrl.dram.bwTotal::writebacks  18153494400                       # Total bandwidth to/from this memory ((Byte/Second))
system.far_mem_ctrl.dram.bwTotal::total   18153494400                       # Total bandwidth to/from this memory ((Byte/Second))
system.far_mem_ctrl.dram.readBursts           2256683                       # Number of DRAM read bursts (Count)
system.far_mem_ctrl.dram.writeBursts          2420622                       # Number of DRAM write bursts (Count)
system.far_mem_ctrl.dram.perBankRdBursts::0        69957                       # Per bank write bursts (Count)
system.far_mem_ctrl.dram.perBankRdBursts::1        70229                       # Per bank write bursts (Count)
system.far_mem_ctrl.dram.perBankRdBursts::2        70529                       # Per bank write bursts (Count)
system.far_mem_ctrl.dram.perBankRdBursts::3        70485                       # Per bank write bursts (Count)
system.far_mem_ctrl.dram.perBankRdBursts::4        71009                       # Per bank write bursts (Count)
system.far_mem_ctrl.dram.perBankRdBursts::5        70446                       # Per bank write bursts (Count)
system.far_mem_ctrl.dram.perBankRdBursts::6        70224                       # Per bank write bursts (Count)
system.far_mem_ctrl.dram.perBankRdBursts::7        70537                       # Per bank write bursts (Count)
system.far_mem_ctrl.dram.perBankRdBursts::8        70283                       # Per bank write bursts (Count)
system.far_mem_ctrl.dram.perBankRdBursts::9        70698                       # Per bank write bursts (Count)
system.far_mem_ctrl.dram.perBankRdBursts::10        70751                       # Per bank write bursts (Count)
system.far_mem_ctrl.dram.perBankRdBursts::11        70433                       # Per bank write bursts (Count)
system.far_mem_ctrl.dram.perBankRdBursts::12        70959                       # Per bank write bursts (Count)
system.far_mem_ctrl.dram.perBankRdBursts::13        70011                       # Per bank write bursts (Count)
system.far_mem_ctrl.dram.perBankRdBursts::14        70459                       # Per bank write bursts (Count)
system.far_mem_ctrl.dram.perBankRdBursts::15        70368                       # Per bank write bursts (Count)
system.far_mem_ctrl.dram.perBankRdBursts::16        70360                       # Per bank write bursts (Count)
system.far_mem_ctrl.dram.perBankRdBursts::17        70419                       # Per bank write bursts (Count)
system.far_mem_ctrl.dram.perBankRdBursts::18        70346                       # Per bank write bursts (Count)
system.far_mem_ctrl.dram.perBankRdBursts::19        70794                       # Per bank write bursts (Count)
system.far_mem_ctrl.dram.perBankRdBursts::20        70648                       # Per bank write bursts (Count)
system.far_mem_ctrl.dram.perBankRdBursts::21        70861                       # Per bank write bursts (Count)
system.far_mem_ctrl.dram.perBankRdBursts::22        70468                       # Per bank write bursts (Count)
system.far_mem_ctrl.dram.perBankRdBursts::23        70876                       # Per bank write bursts (Count)
system.far_mem_ctrl.dram.perBankRdBursts::24        70494                       # Per bank write bursts (Count)
system.far_mem_ctrl.dram.perBankRdBursts::25        70415                       # Per bank write bursts (Count)
system.far_mem_ctrl.dram.perBankRdBursts::26        70093                       # Per bank write bursts (Count)
system.far_mem_ctrl.dram.perBankRdBursts::27        70609                       # Per bank write bursts (Count)
system.far_mem_ctrl.dram.perBankRdBursts::28        70395                       # Per bank write bursts (Count)
system.far_mem_ctrl.dram.perBankRdBursts::29        70652                       # Per bank write bursts (Count)
system.far_mem_ctrl.dram.perBankRdBursts::30        70802                       # Per bank write bursts (Count)
system.far_mem_ctrl.dram.perBankRdBursts::31        71073                       # Per bank write bursts (Count)
system.far_mem_ctrl.dram.perBankWrBursts::0        92753                       # Per bank write bursts (Count)
system.far_mem_ctrl.dram.perBankWrBursts::1        74943                       # Per bank write bursts (Count)
system.far_mem_ctrl.dram.perBankWrBursts::2        75196                       # Per bank write bursts (Count)
system.far_mem_ctrl.dram.perBankWrBursts::3        75049                       # Per bank write bursts (Count)
system.far_mem_ctrl.dram.perBankWrBursts::4        75573                       # Per bank write bursts (Count)
system.far_mem_ctrl.dram.perBankWrBursts::5        75020                       # Per bank write bursts (Count)
system.far_mem_ctrl.dram.perBankWrBursts::6        74481                       # Per bank write bursts (Count)
system.far_mem_ctrl.dram.perBankWrBursts::7        75229                       # Per bank write bursts (Count)
system.far_mem_ctrl.dram.perBankWrBursts::8        74592                       # Per bank write bursts (Count)
system.far_mem_ctrl.dram.perBankWrBursts::9        75198                       # Per bank write bursts (Count)
system.far_mem_ctrl.dram.perBankWrBursts::10        75143                       # Per bank write bursts (Count)
system.far_mem_ctrl.dram.perBankWrBursts::11        75270                       # Per bank write bursts (Count)
system.far_mem_ctrl.dram.perBankWrBursts::12        75408                       # Per bank write bursts (Count)
system.far_mem_ctrl.dram.perBankWrBursts::13        74506                       # Per bank write bursts (Count)
system.far_mem_ctrl.dram.perBankWrBursts::14        75052                       # Per bank write bursts (Count)
system.far_mem_ctrl.dram.perBankWrBursts::15        75170                       # Per bank write bursts (Count)
system.far_mem_ctrl.dram.perBankWrBursts::16        74928                       # Per bank write bursts (Count)
system.far_mem_ctrl.dram.perBankWrBursts::17        74654                       # Per bank write bursts (Count)
system.far_mem_ctrl.dram.perBankWrBursts::18        74984                       # Per bank write bursts (Count)
system.far_mem_ctrl.dram.perBankWrBursts::19        75109                       # Per bank write bursts (Count)
system.far_mem_ctrl.dram.perBankWrBursts::20        75299                       # Per bank write bursts (Count)
system.far_mem_ctrl.dram.perBankWrBursts::21        75224                       # Per bank write bursts (Count)
system.far_mem_ctrl.dram.perBankWrBursts::22        75102                       # Per bank write bursts (Count)
system.far_mem_ctrl.dram.perBankWrBursts::23        75476                       # Per bank write bursts (Count)
system.far_mem_ctrl.dram.perBankWrBursts::24        75372                       # Per bank write bursts (Count)
system.far_mem_ctrl.dram.perBankWrBursts::25        75071                       # Per bank write bursts (Count)
system.far_mem_ctrl.dram.perBankWrBursts::26        74556                       # Per bank write bursts (Count)
system.far_mem_ctrl.dram.perBankWrBursts::27        75225                       # Per bank write bursts (Count)
system.far_mem_ctrl.dram.perBankWrBursts::28        75101                       # Per bank write bursts (Count)
system.far_mem_ctrl.dram.perBankWrBursts::29        74999                       # Per bank write bursts (Count)
system.far_mem_ctrl.dram.perBankWrBursts::30        75167                       # Per bank write bursts (Count)
system.far_mem_ctrl.dram.perBankWrBursts::31        75772                       # Per bank write bursts (Count)
system.far_mem_ctrl.dram.totQLat         638727451263                       # Total ticks spent queuing (Tick)
system.far_mem_ctrl.dram.totBusLat         7519267756                       # Total ticks spent in databus transfers (Tick)
system.far_mem_ctrl.dram.totMemAccLat    678201350299                       # Total ticks spent from burst creation until serviced by the DRAM (Tick)
system.far_mem_ctrl.dram.avgQLat            283038.18                       # Average queueing delay per DRAM burst ((Tick/Count))
system.far_mem_ctrl.dram.avgBusLat            3332.00                       # Average bus latency per DRAM burst ((Tick/Count))
system.far_mem_ctrl.dram.avgMemAccLat       300530.18                       # Average memory access latency per DRAM burst ((Tick/Count))
system.far_mem_ctrl.dram.readRowHits              681                       # Number of row buffer hits during reads (Count)
system.far_mem_ctrl.dram.writeRowHits            4861                       # Number of row buffer hits during writes (Count)
system.far_mem_ctrl.dram.readRowHitRate          0.03                       # Row buffer hit rate for reads (Ratio)
system.far_mem_ctrl.dram.writeRowHitRate         0.20                       # Row buffer hit rate for writes (Ratio)
system.far_mem_ctrl.dram.bytesPerActivate::samples      4671757                       # Bytes accessed per row activation (Byte)
system.far_mem_ctrl.dram.bytesPerActivate::mean    64.075922                       # Bytes accessed per row activation (Byte)
system.far_mem_ctrl.dram.bytesPerActivate::gmean    64.039554                       # Bytes accessed per row activation (Byte)
system.far_mem_ctrl.dram.bytesPerActivate::stdev     4.577364                       # Bytes accessed per row activation (Byte)
system.far_mem_ctrl.dram.bytesPerActivate::0-127      4668267     99.93%     99.93% # Bytes accessed per row activation (Byte)
system.far_mem_ctrl.dram.bytesPerActivate::128-255         3142      0.07%     99.99% # Bytes accessed per row activation (Byte)
system.far_mem_ctrl.dram.bytesPerActivate::256-383          156      0.00%    100.00% # Bytes accessed per row activation (Byte)
system.far_mem_ctrl.dram.bytesPerActivate::384-511           61      0.00%    100.00% # Bytes accessed per row activation (Byte)
system.far_mem_ctrl.dram.bytesPerActivate::512-639           39      0.00%    100.00% # Bytes accessed per row activation (Byte)
system.far_mem_ctrl.dram.bytesPerActivate::640-767           24      0.00%    100.00% # Bytes accessed per row activation (Byte)
system.far_mem_ctrl.dram.bytesPerActivate::768-895           24      0.00%    100.00% # Bytes accessed per row activation (Byte)
system.far_mem_ctrl.dram.bytesPerActivate::896-1023           12      0.00%    100.00% # Bytes accessed per row activation (Byte)
system.far_mem_ctrl.dram.bytesPerActivate::1024-1151           32      0.00%    100.00% # Bytes accessed per row activation (Byte)
system.far_mem_ctrl.dram.bytesPerActivate::total      4671757                       # Bytes accessed per row activation (Byte)
system.far_mem_ctrl.dram.bytesRead          144427712                       # Total bytes read (Byte)
system.far_mem_ctrl.dram.bytesWritten       154919808                       # Total bytes written (Byte)
system.far_mem_ctrl.dram.avgRdBW          7221.385600                       # Average DRAM read bandwidth in MiBytes/s ((Byte/Second))
system.far_mem_ctrl.dram.avgWrBW          7745.990400                       # Average DRAM write bandwidth in MiBytes/s ((Byte/Second))
system.far_mem_ctrl.dram.peakBW              19207.00                       # Theoretical peak bandwidth in MiByte/s ((Byte/Second))
system.far_mem_ctrl.dram.busUtil                77.93                       # Data bus utilization in percentage (Ratio)
system.far_mem_ctrl.dram.busUtilRead            37.60                       # Data bus utilization in percentage for reads (Ratio)
system.far_mem_ctrl.dram.busUtilWrite           40.33                       # Data bus utilization in percentage for writes (Ratio)
system.far_mem_ctrl.dram.pageHitRate             0.12                       # Row buffer hit rate, read and write combined (Ratio)
system.far_mem_ctrl.dram.power_state.pwrStateResidencyTicks::UNDEFINED  20000000000                       # Cumulative time (in ticks) in various power states (Tick)
system.far_mem_ctrl.dram.rank0.actEnergy 7303593233.664004                       # Energy for activate commands per rank (pJ) (Joule)
system.far_mem_ctrl.dram.rank0.preEnergy 9710008690.300808                       # Energy for precharge commands per rank (pJ) (Joule)
system.far_mem_ctrl.dram.rank0.readEnergy 4742109021.350414                       # Energy for read commands per rank (pJ) (Joule)
system.far_mem_ctrl.dram.rank0.writeEnergy 4580039331.167993                       # Energy for write commands per rank (pJ) (Joule)
system.far_mem_ctrl.dram.rank0.refreshEnergy 3557649746.649648                       # Energy for refresh commands per rank (pJ) (Joule)
system.far_mem_ctrl.dram.rank0.actBackEnergy 16898734361.375990                       # Energy for active background per rank (pJ) (Joule)
system.far_mem_ctrl.dram.rank0.preBackEnergy 71661819.801601                       # Energy for precharge background per rank (pJ) (Joule)
system.far_mem_ctrl.dram.rank0.actPowerDownEnergy            0                       # Energy for active power-down per rank (pJ) (Joule)
system.far_mem_ctrl.dram.rank0.prePowerDownEnergy            0                       # Energy for precharge power-down per rank (pJ) (Joule)
system.far_mem_ctrl.dram.rank0.selfRefreshEnergy            0                       # Energy for self refresh per rank (pJ) (Joule)
system.far_mem_ctrl.dram.rank0.totalEnergy 46863796204.310463                       # Total energy per rank (pJ) (Joule)
system.far_mem_ctrl.dram.rank0.averagePower  2343.189810                       # Core power per rank (mW) (Watt)
system.far_mem_ctrl.dram.rank0.totalIdleTime            0                       # Total Idle time Per DRAM Rank (Tick)
system.far_mem_ctrl.dram.rank0.pwrStateTime::IDLE     38672863                       # Time in different power states (Tick)
system.far_mem_ctrl.dram.rank0.pwrStateTime::REF    898800000                       # Time in different power states (Tick)
system.far_mem_ctrl.dram.rank0.pwrStateTime::SREF            0                       # Time in different power states (Tick)
system.far_mem_ctrl.dram.rank0.pwrStateTime::PRE_PDN            0                       # Time in different power states (Tick)
system.far_mem_ctrl.dram.rank0.pwrStateTime::ACT  19062527137                       # Time in different power states (Tick)
system.far_mem_ctrl.dram.rank0.pwrStateTime::ACT_PDN            0                       # Time in different power states (Tick)
system.far_mem_ctrl.dram.rank1.actEnergy 7266464491.104002                       # Energy for activate commands per rank (pJ) (Joule)
system.far_mem_ctrl.dram.rank1.preEnergy 9660621625.032019                       # Energy for precharge commands per rank (pJ) (Joule)
system.far_mem_ctrl.dram.rank1.readEnergy 4750214593.823997                       # Energy for read commands per rank (pJ) (Joule)
system.far_mem_ctrl.dram.rank1.writeEnergy 4517824946.880003                       # Energy for write commands per rank (pJ) (Joule)
system.far_mem_ctrl.dram.rank1.refreshEnergy 3557649746.649648                       # Energy for refresh commands per rank (pJ) (Joule)
system.far_mem_ctrl.dram.rank1.actBackEnergy 16900412357.908777                       # Energy for active background per rank (pJ) (Joule)
system.far_mem_ctrl.dram.rank1.preBackEnergy 70372511.731201                       # Energy for precharge background per rank (pJ) (Joule)
system.far_mem_ctrl.dram.rank1.actPowerDownEnergy            0                       # Energy for active power-down per rank (pJ) (Joule)
system.far_mem_ctrl.dram.rank1.prePowerDownEnergy            0                       # Energy for precharge power-down per rank (pJ) (Joule)
system.far_mem_ctrl.dram.rank1.selfRefreshEnergy            0                       # Energy for self refresh per rank (pJ) (Joule)
system.far_mem_ctrl.dram.rank1.totalEnergy 46723560273.129654                       # Total energy per rank (pJ) (Joule)
system.far_mem_ctrl.dram.rank1.averagePower  2336.178014                       # Core power per rank (mW) (Watt)
system.far_mem_ctrl.dram.rank1.totalIdleTime            0                       # Total Idle time Per DRAM Rank (Tick)
system.far_mem_ctrl.dram.rank1.pwrStateTime::IDLE     36614207                       # Time in different power states (Tick)
system.far_mem_ctrl.dram.rank1.pwrStateTime::REF    898800000                       # Time in different power states (Tick)
system.far_mem_ctrl.dram.rank1.pwrStateTime::SREF            0                       # Time in different power states (Tick)
system.far_mem_ctrl.dram.rank1.pwrStateTime::PRE_PDN            0                       # Time in different power states (Tick)
system.far_mem_ctrl.dram.rank1.pwrStateTime::ACT  19064585793                       # Time in different power states (Tick)
system.far_mem_ctrl.dram.rank1.pwrStateTime::ACT_PDN            0                       # Time in different power states (Tick)
system.far_mem_ctrl.power_state.pwrStateResidencyTicks::UNDEFINED  20000000000                       # Cumulative time (in ticks) in various power states (Tick)
system.generator.numSuppressed                      0                       # Number of suppressed packets to non-memory space (Count)
system.generator.numPackets                   3411220                       # Number of packets generated (Count)
system.generator.numRetries                   2836215                       # Number of retries (Count)
system.generator.retryTicks               19382368291                       # Time spent waiting due to back-pressure (Tick)
system.generator.bytesRead                  144766912                       # Number of bytes read (Byte)
system.generator.bytesWritten                73539584                       # Number of bytes written (Byte)
system.generator.totalReadLatency        3226483468164                       # Total latency of read requests (Tick)
system.generator.totalWriteLatency        29751333183                       # Total latency of write requests (Tick)
system.generator.totalReads                   2261983                       # Total num of reads (Count)
system.generator.totalWrites                  1149056                       # Total num of writes (Count)
system.generator.avgReadLatency          1426395.984481                       # Avg latency of read requests ((Tick/Count))
system.generator.avgWriteLatency         25891.978444                       # Avg latency of write requests ((Tick/Count))
system.generator.readBW                    7238345600                       # Read bandwidth ((Byte/Second))
system.generator.writeBW                   3676979200                       # Write bandwidth ((Byte/Second))
system.generator.power_state.pwrStateResidencyTicks::UNDEFINED  20000000000                       # Cumulative time (in ticks) in various power states (Tick)
system.loc_mem_ctrl.avgPriority_writebacks::samples  13644052.00                       # Average QoS priority value for accepted requests (Count)
system.loc_mem_ctrl.priorityMinLatency   0.000000024000                       # per QoS priority minimum request to response latency (Second)
system.loc_mem_ctrl.priorityMaxLatency   0.000003159000                       # per QoS priority maximum request to response latency (Second)
system.loc_mem_ctrl.numReadWriteTurnArounds            0                       # Number of turnarounds from READ to WRITE (Count)
system.loc_mem_ctrl.numWriteReadTurnArounds            0                       # Number of turnarounds from WRITE to READ (Count)
system.loc_mem_ctrl.numStayReadState         13854216                       # Number of times bus staying in READ state (Count)
system.loc_mem_ctrl.numStayWriteState               0                       # Number of times bus staying in WRITE state (Count)
system.loc_mem_ctrl.readReqs                  3411066                       # Number of read requests accepted (Count)
system.loc_mem_ctrl.writeReqs                 3410965                       # Number of write requests accepted (Count)
system.loc_mem_ctrl.readBursts                6822132                       # Number of controller read bursts, including those serviced by the write queue (Count)
system.loc_mem_ctrl.writeBursts               6821930                       # Number of controller write bursts, including those merged in the write queue (Count)
system.loc_mem_ctrl.servicedByWrQ                   8                       # Number of controller read bursts serviced by the write queue (Count)
system.loc_mem_ctrl.mergedWrBursts                  2                       # Number of controller write bursts merged with an existing one (Count)
system.loc_mem_ctrl.avgRdQLen                   88.18                       # Average read queue length when enqueuing ((Count/Tick))
system.loc_mem_ctrl.avgWrQLen                   78.38                       # Average write queue length when enqueuing ((Count/Tick))
system.loc_mem_ctrl.numRdRetry                6887445                       # Number of times read queue was full causing retry (Count)
system.loc_mem_ctrl.numWrRetry                7085499                       # Number of times write queue was full causing retry (Count)
system.loc_mem_ctrl.readPktSize::0                  0                       # Read request sizes (log2) (Count)
system.loc_mem_ctrl.readPktSize::1                  0                       # Read request sizes (log2) (Count)
system.loc_mem_ctrl.readPktSize::2                  0                       # Read request sizes (log2) (Count)
system.loc_mem_ctrl.readPktSize::3                  0                       # Read request sizes (log2) (Count)
system.loc_mem_ctrl.readPktSize::4                  0                       # Read request sizes (log2) (Count)
system.loc_mem_ctrl.readPktSize::5            6822132                       # Read request sizes (log2) (Count)
system.loc_mem_ctrl.readPktSize::6                  0                       # Read request sizes (log2) (Count)
system.loc_mem_ctrl.writePktSize::0                 0                       # Write request sizes (log2) (Count)
system.loc_mem_ctrl.writePktSize::1                 0                       # Write request sizes (log2) (Count)
system.loc_mem_ctrl.writePktSize::2                 0                       # Write request sizes (log2) (Count)
system.loc_mem_ctrl.writePktSize::3                 0                       # Write request sizes (log2) (Count)
system.loc_mem_ctrl.writePktSize::4                 0                       # Write request sizes (log2) (Count)
system.loc_mem_ctrl.writePktSize::5           6821930                       # Write request sizes (log2) (Count)
system.loc_mem_ctrl.writePktSize::6                 0                       # Write request sizes (log2) (Count)
system.loc_mem_ctrl.rdQLenPdf::0                 8958                       # What read queue length does an incoming req see (Count)
system.loc_mem_ctrl.rdQLenPdf::1                 9556                       # What read queue length does an incoming req see (Count)
system.loc_mem_ctrl.rdQLenPdf::2                11820                       # What read queue length does an incoming req see (Count)
system.loc_mem_ctrl.rdQLenPdf::3                12967                       # What read queue length does an incoming req see (Count)
system.loc_mem_ctrl.rdQLenPdf::4                13356                       # What read queue length does an incoming req see (Count)
system.loc_mem_ctrl.rdQLenPdf::5                14280                       # What read queue length does an incoming req see (Count)
system.loc_mem_ctrl.rdQLenPdf::6                14210                       # What read queue length does an incoming req see (Count)
system.loc_mem_ctrl.rdQLenPdf::7                15109                       # What read queue length does an incoming req see (Count)
system.loc_mem_ctrl.rdQLenPdf::8                15185                       # What read queue length does an incoming req see (Count)
system.loc_mem_ctrl.rdQLenPdf::9                15776                       # What read queue length does an incoming req see (Count)
system.loc_mem_ctrl.rdQLenPdf::10               15842                       # What read queue length does an incoming req see (Count)
system.loc_mem_ctrl.rdQLenPdf::11               16419                       # What read queue length does an incoming req see (Count)
system.loc_mem_ctrl.rdQLenPdf::12               16567                       # What read queue length does an incoming req see (Count)
system.loc_mem_ctrl.rdQLenPdf::13               16890                       # What read queue length does an incoming req see (Count)
system.loc_mem_ctrl.rdQLenPdf::14               17048                       # What read queue length does an incoming req see (Count)
system.loc_mem_ctrl.rdQLenPdf::15               17114                       # What read queue length does an incoming req see (Count)
system.loc_mem_ctrl.rdQLenPdf::16               17240                       # What read queue length does an incoming req see (Count)
system.loc_mem_ctrl.rdQLenPdf::17               17047                       # What read queue length does an incoming req see (Count)
system.loc_mem_ctrl.rdQLenPdf::18               16806                       # What read queue length does an incoming req see (Count)
system.loc_mem_ctrl.rdQLenPdf::19               16835                       # What read queue length does an incoming req see (Count)
system.loc_mem_ctrl.rdQLenPdf::20               16871                       # What read queue length does an incoming req see (Count)
system.loc_mem_ctrl.rdQLenPdf::21               16776                       # What read queue length does an incoming req see (Count)
system.loc_mem_ctrl.rdQLenPdf::22               17002                       # What read queue length does an incoming req see (Count)
system.loc_mem_ctrl.rdQLenPdf::23               16921                       # What read queue length does an incoming req see (Count)
system.loc_mem_ctrl.rdQLenPdf::24               17037                       # What read queue length does an incoming req see (Count)
system.loc_mem_ctrl.rdQLenPdf::25               16942                       # What read queue length does an incoming req see (Count)
system.loc_mem_ctrl.rdQLenPdf::26               17000                       # What read queue length does an incoming req see (Count)
system.loc_mem_ctrl.rdQLenPdf::27               17173                       # What read queue length does an incoming req see (Count)
system.loc_mem_ctrl.rdQLenPdf::28               17281                       # What read queue length does an incoming req see (Count)
system.loc_mem_ctrl.rdQLenPdf::29               17251                       # What read queue length does an incoming req see (Count)
system.loc_mem_ctrl.rdQLenPdf::30               17454                       # What read queue length does an incoming req see (Count)
system.loc_mem_ctrl.rdQLenPdf::31               17367                       # What read queue length does an incoming req see (Count)
system.loc_mem_ctrl.rdQLenPdf::32               17401                       # What read queue length does an incoming req see (Count)
system.loc_mem_ctrl.rdQLenPdf::33               17364                       # What read queue length does an incoming req see (Count)
system.loc_mem_ctrl.rdQLenPdf::34               17290                       # What read queue length does an incoming req see (Count)
system.loc_mem_ctrl.rdQLenPdf::35               17247                       # What read queue length does an incoming req see (Count)
system.loc_mem_ctrl.rdQLenPdf::36               17184                       # What read queue length does an incoming req see (Count)
system.loc_mem_ctrl.rdQLenPdf::37               17185                       # What read queue length does an incoming req see (Count)
system.loc_mem_ctrl.rdQLenPdf::38               17273                       # What read queue length does an incoming req see (Count)
system.loc_mem_ctrl.rdQLenPdf::39               17113                       # What read queue length does an incoming req see (Count)
system.loc_mem_ctrl.rdQLenPdf::40               24042                       # What read queue length does an incoming req see (Count)
system.loc_mem_ctrl.rdQLenPdf::41               26938                       # What read queue length does an incoming req see (Count)
system.loc_mem_ctrl.rdQLenPdf::42               26045                       # What read queue length does an incoming req see (Count)
system.loc_mem_ctrl.rdQLenPdf::43               26396                       # What read queue length does an incoming req see (Count)
system.loc_mem_ctrl.rdQLenPdf::44               27771                       # What read queue length does an incoming req see (Count)
system.loc_mem_ctrl.rdQLenPdf::45               27562                       # What read queue length does an incoming req see (Count)
system.loc_mem_ctrl.rdQLenPdf::46               28397                       # What read queue length does an incoming req see (Count)
system.loc_mem_ctrl.rdQLenPdf::47               28912                       # What read queue length does an incoming req see (Count)
system.loc_mem_ctrl.rdQLenPdf::48               29175                       # What read queue length does an incoming req see (Count)
system.loc_mem_ctrl.rdQLenPdf::49               29482                       # What read queue length does an incoming req see (Count)
system.loc_mem_ctrl.rdQLenPdf::50               30185                       # What read queue length does an incoming req see (Count)
system.loc_mem_ctrl.rdQLenPdf::51               30639                       # What read queue length does an incoming req see (Count)
system.loc_mem_ctrl.rdQLenPdf::52               31330                       # What read queue length does an incoming req see (Count)
system.loc_mem_ctrl.rdQLenPdf::53               31963                       # What read queue length does an incoming req see (Count)
system.loc_mem_ctrl.rdQLenPdf::54               32719                       # What read queue length does an incoming req see (Count)
system.loc_mem_ctrl.rdQLenPdf::55               33525                       # What read queue length does an incoming req see (Count)
system.loc_mem_ctrl.rdQLenPdf::56               34608                       # What read queue length does an incoming req see (Count)
system.loc_mem_ctrl.rdQLenPdf::57               35432                       # What read queue length does an incoming req see (Count)
system.loc_mem_ctrl.rdQLenPdf::58               36705                       # What read queue length does an incoming req see (Count)
system.loc_mem_ctrl.rdQLenPdf::59               38181                       # What read queue length does an incoming req see (Count)
system.loc_mem_ctrl.rdQLenPdf::60               39666                       # What read queue length does an incoming req see (Count)
system.loc_mem_ctrl.rdQLenPdf::61               41164                       # What read queue length does an incoming req see (Count)
system.loc_mem_ctrl.rdQLenPdf::62               57618                       # What read queue length does an incoming req see (Count)
system.loc_mem_ctrl.rdQLenPdf::63               63542                       # What read queue length does an incoming req see (Count)
system.loc_mem_ctrl.rdQLenPdf::64               65411                       # What read queue length does an incoming req see (Count)
system.loc_mem_ctrl.rdQLenPdf::65               70781                       # What read queue length does an incoming req see (Count)
system.loc_mem_ctrl.rdQLenPdf::66               70792                       # What read queue length does an incoming req see (Count)
system.loc_mem_ctrl.rdQLenPdf::67               77506                       # What read queue length does an incoming req see (Count)
system.loc_mem_ctrl.rdQLenPdf::68               82104                       # What read queue length does an incoming req see (Count)
system.loc_mem_ctrl.rdQLenPdf::69               87928                       # What read queue length does an incoming req see (Count)
system.loc_mem_ctrl.rdQLenPdf::70               94550                       # What read queue length does an incoming req see (Count)
system.loc_mem_ctrl.rdQLenPdf::71               99859                       # What read queue length does an incoming req see (Count)
system.loc_mem_ctrl.rdQLenPdf::72              105737                       # What read queue length does an incoming req see (Count)
system.loc_mem_ctrl.rdQLenPdf::73              110972                       # What read queue length does an incoming req see (Count)
system.loc_mem_ctrl.rdQLenPdf::74              116518                       # What read queue length does an incoming req see (Count)
system.loc_mem_ctrl.rdQLenPdf::75              120357                       # What read queue length does an incoming req see (Count)
system.loc_mem_ctrl.rdQLenPdf::76              125395                       # What read queue length does an incoming req see (Count)
system.loc_mem_ctrl.rdQLenPdf::77              128791                       # What read queue length does an incoming req see (Count)
system.loc_mem_ctrl.rdQLenPdf::78              132258                       # What read queue length does an incoming req see (Count)
system.loc_mem_ctrl.rdQLenPdf::79              134755                       # What read queue length does an incoming req see (Count)
system.loc_mem_ctrl.rdQLenPdf::80              138084                       # What read queue length does an incoming req see (Count)
system.loc_mem_ctrl.rdQLenPdf::81              140311                       # What read queue length does an incoming req see (Count)
system.loc_mem_ctrl.rdQLenPdf::82              142126                       # What read queue length does an incoming req see (Count)
system.loc_mem_ctrl.rdQLenPdf::83              142509                       # What read queue length does an incoming req see (Count)
system.loc_mem_ctrl.rdQLenPdf::84              143949                       # What read queue length does an incoming req see (Count)
system.loc_mem_ctrl.rdQLenPdf::85              144483                       # What read queue length does an incoming req see (Count)
system.loc_mem_ctrl.rdQLenPdf::86              144691                       # What read queue length does an incoming req see (Count)
system.loc_mem_ctrl.rdQLenPdf::87              144577                       # What read queue length does an incoming req see (Count)
system.loc_mem_ctrl.rdQLenPdf::88              144442                       # What read queue length does an incoming req see (Count)
system.loc_mem_ctrl.rdQLenPdf::89              144168                       # What read queue length does an incoming req see (Count)
system.loc_mem_ctrl.rdQLenPdf::90              142785                       # What read queue length does an incoming req see (Count)
system.loc_mem_ctrl.rdQLenPdf::91              142094                       # What read queue length does an incoming req see (Count)
system.loc_mem_ctrl.rdQLenPdf::92              140988                       # What read queue length does an incoming req see (Count)
system.loc_mem_ctrl.rdQLenPdf::93              139479                       # What read queue length does an incoming req see (Count)
system.loc_mem_ctrl.rdQLenPdf::94              138373                       # What read queue length does an incoming req see (Count)
system.loc_mem_ctrl.rdQLenPdf::95              136961                       # What read queue length does an incoming req see (Count)
system.loc_mem_ctrl.rdQLenPdf::96              135983                       # What read queue length does an incoming req see (Count)
system.loc_mem_ctrl.rdQLenPdf::97              135212                       # What read queue length does an incoming req see (Count)
system.loc_mem_ctrl.rdQLenPdf::98              133355                       # What read queue length does an incoming req see (Count)
system.loc_mem_ctrl.rdQLenPdf::99              132548                       # What read queue length does an incoming req see (Count)
system.loc_mem_ctrl.rdQLenPdf::100             131037                       # What read queue length does an incoming req see (Count)
system.loc_mem_ctrl.rdQLenPdf::101             129295                       # What read queue length does an incoming req see (Count)
system.loc_mem_ctrl.rdQLenPdf::102             126074                       # What read queue length does an incoming req see (Count)
system.loc_mem_ctrl.rdQLenPdf::103             117157                       # What read queue length does an incoming req see (Count)
system.loc_mem_ctrl.rdQLenPdf::104              88986                       # What read queue length does an incoming req see (Count)
system.loc_mem_ctrl.rdQLenPdf::105              49867                       # What read queue length does an incoming req see (Count)
system.loc_mem_ctrl.rdQLenPdf::106              21061                       # What read queue length does an incoming req see (Count)
system.loc_mem_ctrl.rdQLenPdf::107              18305                       # What read queue length does an incoming req see (Count)
system.loc_mem_ctrl.rdQLenPdf::108              16546                       # What read queue length does an incoming req see (Count)
system.loc_mem_ctrl.rdQLenPdf::109              16104                       # What read queue length does an incoming req see (Count)
system.loc_mem_ctrl.rdQLenPdf::110              15578                       # What read queue length does an incoming req see (Count)
system.loc_mem_ctrl.rdQLenPdf::111              15404                       # What read queue length does an incoming req see (Count)
system.loc_mem_ctrl.rdQLenPdf::112              14880                       # What read queue length does an incoming req see (Count)
system.loc_mem_ctrl.rdQLenPdf::113              14806                       # What read queue length does an incoming req see (Count)
system.loc_mem_ctrl.rdQLenPdf::114              13981                       # What read queue length does an incoming req see (Count)
system.loc_mem_ctrl.rdQLenPdf::115              13713                       # What read queue length does an incoming req see (Count)
system.loc_mem_ctrl.rdQLenPdf::116              13389                       # What read queue length does an incoming req see (Count)
system.loc_mem_ctrl.rdQLenPdf::117              13286                       # What read queue length does an incoming req see (Count)
system.loc_mem_ctrl.rdQLenPdf::118              12508                       # What read queue length does an incoming req see (Count)
system.loc_mem_ctrl.rdQLenPdf::119              12288                       # What read queue length does an incoming req see (Count)
system.loc_mem_ctrl.rdQLenPdf::120              11677                       # What read queue length does an incoming req see (Count)
system.loc_mem_ctrl.rdQLenPdf::121              11581                       # What read queue length does an incoming req see (Count)
system.loc_mem_ctrl.rdQLenPdf::122              11072                       # What read queue length does an incoming req see (Count)
system.loc_mem_ctrl.rdQLenPdf::123              10963                       # What read queue length does an incoming req see (Count)
system.loc_mem_ctrl.rdQLenPdf::124              10468                       # What read queue length does an incoming req see (Count)
system.loc_mem_ctrl.rdQLenPdf::125              10156                       # What read queue length does an incoming req see (Count)
system.loc_mem_ctrl.rdQLenPdf::126               9178                       # What read queue length does an incoming req see (Count)
system.loc_mem_ctrl.rdQLenPdf::127               7778                       # What read queue length does an incoming req see (Count)
system.loc_mem_ctrl.wrQLenPdf::0                 4379                       # What write queue length does an incoming req see (Count)
system.loc_mem_ctrl.wrQLenPdf::1                 5984                       # What write queue length does an incoming req see (Count)
system.loc_mem_ctrl.wrQLenPdf::2                 6895                       # What write queue length does an incoming req see (Count)
system.loc_mem_ctrl.wrQLenPdf::3                 8095                       # What write queue length does an incoming req see (Count)
system.loc_mem_ctrl.wrQLenPdf::4                 8972                       # What write queue length does an incoming req see (Count)
system.loc_mem_ctrl.wrQLenPdf::5                10022                       # What write queue length does an incoming req see (Count)
system.loc_mem_ctrl.wrQLenPdf::6                11113                       # What write queue length does an incoming req see (Count)
system.loc_mem_ctrl.wrQLenPdf::7                12116                       # What write queue length does an incoming req see (Count)
system.loc_mem_ctrl.wrQLenPdf::8                13800                       # What write queue length does an incoming req see (Count)
system.loc_mem_ctrl.wrQLenPdf::9                15354                       # What write queue length does an incoming req see (Count)
system.loc_mem_ctrl.wrQLenPdf::10               17667                       # What write queue length does an incoming req see (Count)
system.loc_mem_ctrl.wrQLenPdf::11               19830                       # What write queue length does an incoming req see (Count)
system.loc_mem_ctrl.wrQLenPdf::12               22665                       # What write queue length does an incoming req see (Count)
system.loc_mem_ctrl.wrQLenPdf::13               25083                       # What write queue length does an incoming req see (Count)
system.loc_mem_ctrl.wrQLenPdf::14               27800                       # What write queue length does an incoming req see (Count)
system.loc_mem_ctrl.wrQLenPdf::15               29777                       # What write queue length does an incoming req see (Count)
system.loc_mem_ctrl.wrQLenPdf::16               31867                       # What write queue length does an incoming req see (Count)
system.loc_mem_ctrl.wrQLenPdf::17               32821                       # What write queue length does an incoming req see (Count)
system.loc_mem_ctrl.wrQLenPdf::18               33466                       # What write queue length does an incoming req see (Count)
system.loc_mem_ctrl.wrQLenPdf::19               33176                       # What write queue length does an incoming req see (Count)
system.loc_mem_ctrl.wrQLenPdf::20               33051                       # What write queue length does an incoming req see (Count)
system.loc_mem_ctrl.wrQLenPdf::21               32470                       # What write queue length does an incoming req see (Count)
system.loc_mem_ctrl.wrQLenPdf::22               32378                       # What write queue length does an incoming req see (Count)
system.loc_mem_ctrl.wrQLenPdf::23               31594                       # What write queue length does an incoming req see (Count)
system.loc_mem_ctrl.wrQLenPdf::24               31126                       # What write queue length does an incoming req see (Count)
system.loc_mem_ctrl.wrQLenPdf::25               30433                       # What write queue length does an incoming req see (Count)
system.loc_mem_ctrl.wrQLenPdf::26               30115                       # What write queue length does an incoming req see (Count)
system.loc_mem_ctrl.wrQLenPdf::27               29500                       # What write queue length does an incoming req see (Count)
system.loc_mem_ctrl.wrQLenPdf::28               29138                       # What write queue length does an incoming req see (Count)
system.loc_mem_ctrl.wrQLenPdf::29               28502                       # What write queue length does an incoming req see (Count)
system.loc_mem_ctrl.wrQLenPdf::30               28385                       # What write queue length does an incoming req see (Count)
[...]
system.loc_mem_ctrl.dram_2.perBankRdBursts::3       212362                       # Per bank write bursts (Count)
system.loc_mem_ctrl.dram_2.perBankRdBursts::4       213798                       # Per bank write bursts (Count)
system.loc_mem_ctrl.dram_2.perBankRdBursts::5       212938                       # Per bank write bursts (Count)
system.loc_mem_ctrl.dram_2.perBankRdBursts::6       213010                       # Per bank write bursts (Count)
system.loc_mem_ctrl.dram_2.perBankRdBursts::7       211848                       # Per bank write bursts (Count)
system.loc_mem_ctrl.dram_2.perBankRdBursts::8       212346                       # Per bank write bursts (Count)
system.loc_mem_ctrl.dram_2.perBankRdBursts::9       212352                       # Per bank write bursts (Count)
system.loc_mem_ctrl.dram_2.perBankRdBursts::10       213162                       # Per bank write bursts (Count)
system.loc_mem_ctrl.dram_2.perBankRdBursts::11       212762                       # Per bank write bursts (Count)
system.loc_mem_ctrl.dram_2.perBankRdBursts::12       213728                       # Per bank write bursts (Count)
system.loc_mem_ctrl.dram_2.perBankRdBursts::13       213440                       # Per bank write bursts (Count)
system.loc_mem_ctrl.dram_2.perBankRdBursts::14       213919                       # Per bank write bursts (Count)
system.loc_mem_ctrl.dram_2.perBankRdBursts::15       214118                       # Per bank write bursts (Count)
system.loc_mem_ctrl.dram_2.perBankWrBursts::0       212972                       # Per bank write bursts (Count)
system.loc_mem_ctrl.dram_2.perBankWrBursts::1       213206                       # Per bank write bursts (Count)
system.loc_mem_ctrl.dram_2.perBankWrBursts::2       213480                       # Per bank write bursts (Count)
system.loc_mem_ctrl.dram_2.perBankWrBursts::3       212354                       # Per bank write bursts (Count)
system.loc_mem_ctrl.dram_2.perBankWrBursts::4       213792                       # Per bank write bursts (Count)
system.loc_mem_ctrl.dram_2.perBankWrBursts::5       212928                       # Per bank write bursts (Count)
system.loc_mem_ctrl.dram_2.perBankWrBursts::6       213008                       # Per bank write bursts (Count)
system.loc_mem_ctrl.dram_2.perBankWrBursts::7       211842                       # Per bank write bursts (Count)
system.loc_mem_ctrl.dram_2.perBankWrBursts::8       212336                       # Per bank write bursts (Count)
system.loc_mem_ctrl.dram_2.perBankWrBursts::9       212348                       # Per bank write bursts (Count)
system.loc_mem_ctrl.dram_2.perBankWrBursts::10       213154                       # Per bank write bursts (Count)
system.loc_mem_ctrl.dram_2.perBankWrBursts::11       212756                       # Per bank write bursts (Count)
system.loc_mem_ctrl.dram_2.perBankWrBursts::12       213726                       # Per bank write bursts (Count)
system.loc_mem_ctrl.dram_2.perBankWrBursts::13       213432                       # Per bank write bursts (Count)
system.loc_mem_ctrl.dram_2.perBankWrBursts::14       213914                       # Per bank write bursts (Count)
system.loc_mem_ctrl.dram_2.perBankWrBursts::15       214112                       # Per bank write bursts (Count)
system.loc_mem_ctrl.dram_2.totQLat       715242257956                       # Total ticks spent queuing (Tick)
system.loc_mem_ctrl.dram_2.totBusLat       6818914000                       # Total ticks spent in databus transfers (Tick)
system.loc_mem_ctrl.dram_2.totMemAccLat  783431397956                       # Total ticks spent from burst creation until serviced by the DRAM (Tick)
system.loc_mem_ctrl.dram_2.avgQLat          209781.87                       # Average queueing delay per DRAM burst ((Tick/Count))
system.loc_mem_ctrl.dram_2.avgBusLat          2000.00                       # Average bus latency per DRAM burst ((Tick/Count))
system.loc_mem_ctrl.dram_2.avgMemAccLat     229781.87                       # Average memory access latency per DRAM burst ((Tick/Count))
system.loc_mem_ctrl.dram_2.readRowHits        1702727                       # Number of row buffer hits during reads (Count)
system.loc_mem_ctrl.dram_2.writeRowHits       1702720                       # Number of row buffer hits during writes (Count)
system.loc_mem_ctrl.dram_2.readRowHitRate        49.94                       # Row buffer hit rate for reads (Ratio)
system.loc_mem_ctrl.dram_2.writeRowHitRate        49.94                       # Row buffer hit rate for writes (Ratio)
system.loc_mem_ctrl.dram_2.bytesPerActivate::samples      3413369                       # Bytes accessed per row activation (Byte)
system.loc_mem_ctrl.dram_2.bytesPerActivate::mean    63.925732                       # Bytes accessed per row activation (Byte)
system.loc_mem_ctrl.dram_2.bytesPerActivate::gmean    63.896503                       # Bytes accessed per row activation (Byte)
system.loc_mem_ctrl.dram_2.bytesPerActivate::stdev     1.567629                       # Bytes accessed per row activation (Byte)
system.loc_mem_ctrl.dram_2.bytesPerActivate::32-47         8018      0.23%      0.23% # Bytes accessed per row activation (Byte)
system.loc_mem_ctrl.dram_2.bytesPerActivate::64-79      3405303     99.76%    100.00% # Bytes accessed per row activation (Byte)
system.loc_mem_ctrl.dram_2.bytesPerActivate::128-143           48      0.00%    100.00% # Bytes accessed per row activation (Byte)
system.loc_mem_ctrl.dram_2.bytesPerActivate::total      3413369                       # Bytes accessed per row activation (Byte)
system.loc_mem_ctrl.dram_2.bytesRead        109102624                       # Total bytes read (Byte)
system.loc_mem_ctrl.dram_2.bytesWritten     109099520                       # Total bytes written (Byte)
system.loc_mem_ctrl.dram_2.avgRdBW        5455.131200                       # Average DRAM read bandwidth in MiBytes/s ((Byte/Second))
system.loc_mem_ctrl.dram_2.avgWrBW        5454.976000                       # Average DRAM write bandwidth in MiBytes/s ((Byte/Second))
system.loc_mem_ctrl.dram_2.peakBW            16000.00                       # Theoretical peak bandwidth in MiByte/s ((Byte/Second))
system.loc_mem_ctrl.dram_2.busUtil              68.19                       # Data bus utilization in percentage (Ratio)
system.loc_mem_ctrl.dram_2.busUtilRead          34.09                       # Data bus utilization in percentage for reads (Ratio)
system.loc_mem_ctrl.dram_2.busUtilWrite         34.09                       # Data bus utilization in percentage for writes (Ratio)
system.loc_mem_ctrl.dram_2.pageHitRate          49.94                       # Row buffer hit rate, read and write combined (Ratio)
system.loc_mem_ctrl.dram_2.power_state.pwrStateResidencyTicks::UNDEFINED  20000000000                       # Cumulative time (in ticks) in various power states (Tick)
system.loc_mem_ctrl.dram_2.rank0.actEnergy            0                       # Energy for activate commands per rank (pJ) (Joule)
system.loc_mem_ctrl.dram_2.rank0.preEnergy            0                       # Energy for precharge commands per rank (pJ) (Joule)
system.loc_mem_ctrl.dram_2.rank0.readEnergy            0                       # Energy for read commands per rank (pJ) (Joule)
system.loc_mem_ctrl.dram_2.rank0.writeEnergy            0                       # Energy for write commands per rank (pJ) (Joule)
system.loc_mem_ctrl.dram_2.rank0.refreshEnergy            0                       # Energy for refresh commands per rank (pJ) (Joule)
system.loc_mem_ctrl.dram_2.rank0.actBackEnergy            0                       # Energy for active background per rank (pJ) (Joule)
system.loc_mem_ctrl.dram_2.rank0.preBackEnergy            0                       # Energy for precharge background per rank (pJ) (Joule)
system.loc_mem_ctrl.dram_2.rank0.actPowerDownEnergy            0                       # Energy for active power-down per rank (pJ) (Joule)
system.loc_mem_ctrl.dram_2.rank0.prePowerDownEnergy            0                       # Energy for precharge power-down per rank (pJ) (Joule)
system.loc_mem_ctrl.dram_2.rank0.selfRefreshEnergy            0                       # Energy for self refresh per rank (pJ) (Joule)
system.loc_mem_ctrl.dram_2.rank0.totalEnergy            0                       # Total energy per rank (pJ) (Joule)
system.loc_mem_ctrl.dram_2.rank0.averagePower            0                       # Core power per rank (mW) (Watt)
system.loc_mem_ctrl.dram_2.rank0.totalIdleTime            0                       # Total Idle time Per DRAM Rank (Tick)
system.loc_mem_ctrl.dram_2.rank0.pwrStateTime::IDLE    386262460                       # Time in different power states (Tick)
system.loc_mem_ctrl.dram_2.rank0.pwrStateTime::REF   1132120000                       # Time in different power states (Tick)
system.loc_mem_ctrl.dram_2.rank0.pwrStateTime::SREF            0                       # Time in different power states (Tick)
system.loc_mem_ctrl.dram_2.rank0.pwrStateTime::PRE_PDN            0                       # Time in different power states (Tick)
system.loc_mem_ctrl.dram_2.rank0.pwrStateTime::ACT  18481617540                       # Time in different power states (Tick)
system.loc_mem_ctrl.dram_2.rank0.pwrStateTime::ACT_PDN            0                       # Time in different power states (Tick)
system.loc_mem_ctrl.power_state.pwrStateResidencyTicks::UNDEFINED  20000000000                       # Cumulative time (in ticks) in various power states (Tick)
system.mem_ctrl.bytesRead::generator        144766912                       # Number of bytes read from this memory (Byte)
system.mem_ctrl.bytesRead::total            144766912                       # Number of bytes read from this memory (Byte)
system.mem_ctrl.bytesWritten::generator      73539648                       # Number of bytes written to this memory (Byte)
system.mem_ctrl.bytesWritten::total          73539648                       # Number of bytes written to this memory (Byte)
system.mem_ctrl.numReads::generator           2261983                       # Number of read requests responded to by this memory (Count)
system.mem_ctrl.numReads::total               2261983                       # Number of read requests responded to by this memory (Count)
system.mem_ctrl.numWrites::generator          1149057                       # Number of write requests responded to by this memory (Count)
system.mem_ctrl.numWrites::total              1149057                       # Number of write requests responded to by this memory (Count)
system.mem_ctrl.bwRead::generator          7238345600                       # Total read bandwidth from this memory ((Byte/Second))
system.mem_ctrl.bwRead::total              7238345600                       # Total read bandwidth from this memory ((Byte/Second))
system.mem_ctrl.bwWrite::generator         3676982400                       # Write bandwidth from this memory ((Byte/Second))
system.mem_ctrl.bwWrite::total             3676982400                       # Write bandwidth from this memory ((Byte/Second))
system.mem_ctrl.bwTotal::generator        10915328000                       # Total bandwidth to/from this memory ((Byte/Second))
system.mem_ctrl.bwTotal::total            10915328000                       # Total bandwidth to/from this memory ((Byte/Second))
system.mem_ctrl.readReqs                      2262163                       # Number of read requests accepted (Count)
system.mem_ctrl.writeReqs                     1149057                       # Number of write requests accepted (Count)
system.mem_ctrl.servicedByWrQ                       4                       # Number of controller read bursts serviced by the write queue (Count)
system.mem_ctrl.mergedWrBursts                      0                       # Number of controller write bursts merged with an existing one (Count)
system.mem_ctrl.numRdRetry                    1881225                       # Number of times read queue was full causing retry (Count)
system.mem_ctrl.numWrRetry                     954990                       # Number of times write queue was full causing retry (Count)
system.mem_ctrl.readPktSize::0                      0                       # Read request sizes (log2) (Count)
system.mem_ctrl.readPktSize::1                      0                       # Read request sizes (log2) (Count)
system.mem_ctrl.readPktSize::2                      0                       # Read request sizes (log2) (Count)
system.mem_ctrl.readPktSize::3                      0                       # Read request sizes (log2) (Count)
system.mem_ctrl.readPktSize::4                      0                       # Read request sizes (log2) (Count)
system.mem_ctrl.readPktSize::5                      0                       # Read request sizes (log2) (Count)
system.mem_ctrl.readPktSize::6                2262163                       # Read request sizes (log2) (Count)
system.mem_ctrl.writePktSize::0                     0                       # Write request sizes (log2) (Count)
system.mem_ctrl.writePktSize::1                     0                       # Write request sizes (log2) (Count)
system.mem_ctrl.writePktSize::2                     0                       # Write request sizes (log2) (Count)
system.mem_ctrl.writePktSize::3                     0                       # Write request sizes (log2) (Count)
system.mem_ctrl.writePktSize::4                     0                       # Write request sizes (log2) (Count)
system.mem_ctrl.writePktSize::5                     0                       # Write request sizes (log2) (Count)
system.mem_ctrl.writePktSize::6               1149057                       # Write request sizes (log2) (Count)
system.mem_ctrl.bytesReadWrQ                      256                       # Total number of bytes read from write queue (Byte)
system.mem_ctrl.bytesReadSys                144778432                       # Total read bytes from the system interface side (Byte)
system.mem_ctrl.bytesWrittenSys              73539648                       # Total written bytes from the system interface side (Byte)
system.mem_ctrl.avgRdBWSys               7238921600.00000000                       # Average system read bandwidth in Byte/s ((Byte/Second))
system.mem_ctrl.avgWrBWSys               3676982400.00000000                       # Average system write bandwidth in Byte/s ((Byte/Second))
system.mem_ctrl.totGap                   18446603759391313920                       # Total gap between requests (Tick)
system.mem_ctrl.avgGap                   5407626526401.50                       # Average gap between requests ((Tick/Count))
system.mem_ctrl.avgORBLen                    253.5450                       # Average ORB length ((Count/Tick))
system.mem_ctrl.avgLocRdQLenStrt               111.48                       # Average local read queue length ((Count/Tick))
system.mem_ctrl.avgLocWrQLenStrt                22.17                       # Average local write queue length ((Count/Tick))
system.mem_ctrl.avgFarRdQLenStrt                33.05                       # Average far read queue length ((Count/Tick))
system.mem_ctrl.avgFarWrQLenStrt                13.72                       # Average far write queue length ((Count/Tick))
system.mem_ctrl.avgLocRdQLenEnq                112.48                       # Average local read queue length when enqueuing ((Count/Tick))
system.mem_ctrl.avgLocWrQLenEnq                 64.72                       # Average local write queue length when enqueuing ((Count/Tick))
system.mem_ctrl.avgFarRdQLenEnq                 46.74                       # Average far read queue length when enqueuing ((Count/Tick))
system.mem_ctrl.avgFarWrQLenEnq                 40.40                       # Average far write queue length when enqueuing ((Count/Tick))
system.mem_ctrl.numWrBacks                    3411011                       # Total number of write backs from DRAM cache to main memory (Unspecified)
system.mem_ctrl.totNumConf                        748                       # Total number of packets conflicted on DRAM cache (Unspecified)
system.mem_ctrl.totNumORBFull                 2832722                       # Total number of packets ORB full (Unspecified)
system.mem_ctrl.totNumCRBFull                       0                       # Total number of packets conflicted yet couldn't enter confBuffer (Unspecified)
system.mem_ctrl.maxNumConf                          2                       # Maximum number of packets conflicted on DRAM cache (Unspecified)
system.mem_ctrl.sentLocRdPort                 3411066                       # stat (Unspecified)
system.mem_ctrl.sentLocWrPort                 3410965                       # stat (Unspecified)
system.mem_ctrl.failedLocRdPort               6887445                       # stat (Unspecified)
system.mem_ctrl.failedLocWrPort               7085499                       # stat (Unspecified)
system.mem_ctrl.recvdRdPort                         0                       # stat (Unspecified)
system.mem_ctrl.sentFarRdPort                 2262029                       # stat (Unspecified)
system.mem_ctrl.sentFarWrPort                 3410984                       # stat (Unspecified)
system.mem_ctrl.failedFarRdPort               2124801                       # stat (Unspecified)
system.mem_ctrl.failedFarWrPort               2269573                       # stat (Unspecified)
system.mem_ctrl.totPktsServiceTime         4979403325                       # stat (Unspecified)
system.mem_ctrl.totPktsORBTime             4978744555                       # stat (Unspecified)
system.mem_ctrl.totTimeFarRdtoSend          724121040                       # stat (Unspecified)
system.mem_ctrl.totTimeFarRdtoRecv          722180692                       # stat (Unspecified)
system.mem_ctrl.totTimeFarWrtoSend                  0                       # stat (Unspecified)
system.mem_ctrl.totTimeInLocRead           2558162298                       # stat (Unspecified)
system.mem_ctrl.totTimeInLocWrite           971902594                       # stat (Unspecified)
system.mem_ctrl.totTimeInFarRead           1446802502                       # stat (Unspecified)
system.mem_ctrl.numTotHits                          0                       # stat (Unspecified)
system.mem_ctrl.numTotMisses                  3411220                       # stat (Unspecified)
system.mem_ctrl.numColdMisses                 1008315                       # stat (Unspecified)
system.mem_ctrl.numHotMisses                  2402905                       # stat (Unspecified)
system.mem_ctrl.numRdMissClean                1725171                       # stat (Unspecified)
system.mem_ctrl.numRdMissDirty                 536992                       # stat (Unspecified)
system.mem_ctrl.numRdHit                            0                       # stat (Unspecified)
system.mem_ctrl.numWrMissClean                 876060                       # stat (Unspecified)
system.mem_ctrl.numWrMissDirty                 272997                       # stat (Unspecified)
system.mem_ctrl.numWrHit                            0                       # stat (Unspecified)
system.mem_ctrl.numRdHitDirty                       0                       # stat (Unspecified)
system.mem_ctrl.numRdHitClean                       0                       # stat (Unspecified)
system.mem_ctrl.numWrHitDirty                       0                       # stat (Unspecified)
system.mem_ctrl.numWrHitClean                       0                       # stat (Unspecified)
system.mem_ctrl.power_state.pwrStateResidencyTicks::UNDEFINED  20000000000                       # Cumulative time (in ticks) in various power states (Tick)
system.workload.inst.arm                            0                       # number of arm instructions executed (Count)
system.workload.inst.quiesce                        0                       # number of quiesce instructions executed (Count)

---------- End Simulation Statistics   ----------
